data_crystal

_cell_length_a 8.63700
_cell_length_b 12.27000
_cell_length_c 12.27000
_cell_angle_alpha 114.67200
_cell_angle_beta  103.57000
_cell_angle_gamma 103.57000

_symmetry_space_group_name_	'P 1'
_symmetry_space_group_name_H-M	'P 1'

loop_
_symmetry_equiv_pos_as_xyz
  x,y,z

loop_
_atom_site_label
_atom_site_type_symbol
_atom_site_fract_x
_atom_site_fract_y
_atom_site_fract_z
_atom_site_charge
Ca	Ca	0.01359 0.42433 0.62167 1.52000
Ca	Ca	0.58926 0.19734 0.57567 1.51900
Ca	Ca	0.39192 0.37833 0.80266 1.51900
Ca	Ca	0.98641 0.57567 0.37833 1.52000
Ca	Ca	0.41074 0.80266 0.42433 1.51900
Ca	Ca	0.60808 0.62167 0.19734 1.51900
H 	H 	0.96340 0.18390 0.90080 0.21500
H 	H 	0.78530 0.13240 0.78940 0.19900
H 	H 	0.95380 0.39070 0.00120 -0.10500
H 	H 	0.78670 0.34910 0.88560 -0.12300
H 	H 	0.64060 0.20390 0.94740 0.21500
H 	H 	0.80610 0.27200 0.07400 0.22100
H 	H 	0.77950 0.71690 0.81610 0.22200
H 	H 	0.65290 0.65700 0.86760 0.20300
H 	H 	0.56310 0.61050 0.60930 -0.11000
H 	H 	0.43760 0.53650 0.65090 -0.12700
H 	H 	0.43670 0.74350 0.79610 0.21900
H 	H 	0.53410 0.80200 0.72800 0.22500
H 	H 	0.06260 0.09920 0.28310 0.21000
H 	H 	0.99590 0.21060 0.34300 0.18900
H 	H 	0.95260 0.99880 0.38950 -0.09000
H 	H 	0.90110 0.11440 0.46350 -0.11300
H 	H 	0.69320 0.05260 0.25650 0.20500
H 	H 	0.73210 0.92600 0.19800 0.21300
H 	H 	0.03660 0.81610 0.09920 0.21500
H 	H 	0.21470 0.86760 0.21060 0.19900
H 	H 	0.04620 0.60930 0.99880 -0.10500
H 	H 	0.21330 0.65090 0.11440 -0.12300
H 	H 	0.35940 0.79610 0.05260 0.21500
H 	H 	0.19390 0.72800 0.92600 0.22100
H 	H 	0.22050 0.28310 0.18390 0.22200
H 	H 	0.34710 0.34300 0.13240 0.20300
H 	H 	0.43690 0.38950 0.39070 -0.11000
H 	H 	0.56240 0.46350 0.34910 -0.12700
H 	H 	0.56330 0.25650 0.20390 0.21900
H 	H 	0.46590 0.19800 0.27200 0.22500
H 	H 	0.93740 0.90080 0.71690 0.21000
H 	H 	0.00410 0.78940 0.65700 0.18900
H 	H 	0.04740 0.00120 0.61050 -0.09000
H 	H 	0.09890 0.88560 0.53650 -0.11300
H 	H 	0.30680 0.94740 0.74350 0.20500
H 	H 	0.26790 0.07400 0.80200 0.21300
C 	C 	0.98080 0.24940 0.77380 0.57600
C 	C 	0.89030 0.20760 0.84890 -0.67300
C 	C 	0.84720 0.31930 0.93760 0.42900
C 	C 	0.73840 0.28440 0.00820 -0.69200
C 	C 	0.67670 0.39080 0.06950 0.58600
C 	C 	0.73140 0.52440 0.75060 0.58700
C 	C 	0.68270 0.64130 0.79240 -0.68600
C 	C 	0.52790 0.61830 0.68070 0.44400
C 	C 	0.45400 0.72380 0.71560 -0.70200
C 	C 	0.28590 0.67870 0.60920 0.58900
C 	C 	0.20700 0.22620 0.47560 0.57400
C 	C 	0.04140 0.15110 0.35870 -0.64300
C 	C 	0.90960 0.06240 0.38170 0.38900
C 	C 	0.73020 0.99180 0.27620 -0.66100
C 	C 	0.60720 0.93050 0.32130 0.57600
C 	C 	0.01920 0.75060 0.22620 0.57600
C 	C 	0.10970 0.79240 0.15110 -0.67300
C 	C 	0.15280 0.68070 0.06240 0.42900
C 	C 	0.26160 0.71560 0.99180 -0.69200
C 	C 	0.32330 0.60920 0.93050 0.58600
C 	C 	0.26860 0.47560 0.24940 0.58700
C 	C 	0.31730 0.35870 0.20760 -0.68600
C 	C 	0.47210 0.38170 0.31930 0.44400
C 	C 	0.54600 0.27620 0.28440 -0.70200
C 	C 	0.71410 0.32130 0.39080 0.58900
C 	C 	0.79300 0.77380 0.52440 0.57400
C 	C 	0.95860 0.84890 0.64130 -0.64300
C 	C 	0.09040 0.93760 0.61830 0.38900
C 	C 	0.26980 0.00820 0.72380 -0.66100
C 	C 	0.39280 0.06950 0.67870 0.57600
O 	O 	0.89390 0.26590 0.68680 -0.60400
O 	O 	0.13740 0.27310 0.80770 -0.53300
O 	O 	0.55590 0.40430 0.00230 -0.60400
O 	O 	0.74880 0.46740 0.18880 -0.63200
O 	O 	0.62800 0.42090 0.73410 -0.60600
O 	O 	0.86430 0.53460 0.72690 -0.53900
O 	O 	0.15160 0.59800 0.59570 -0.60300
O 	O 	0.28140 0.72140 0.53260 -0.63300
O 	O 	0.20710 0.31320 0.57910 -0.60100
O 	O 	0.32970 0.19230 0.46540 -0.53500
O 	O 	0.55360 0.99770 0.40200 -0.60000
O 	O 	0.56000 0.81120 0.27860 -0.62900
O 	O 	0.10610 0.73410 0.31320 -0.60400
O 	O 	0.86260 0.72690 0.19230 -0.53300
O 	O 	0.44410 0.59570 0.99770 -0.60400
O 	O 	0.25120 0.53260 0.81120 -0.63200
O 	O 	0.37200 0.57910 0.26590 -0.60600
O 	O 	0.13570 0.46540 0.27310 -0.53900
O 	O 	0.84840 0.40200 0.40430 -0.60300
O 	O 	0.71860 0.27860 0.46740 -0.63300
O 	O 	0.79290 0.68680 0.42090 -0.60100
O 	O 	0.67030 0.80770 0.53460 -0.53500
O 	O 	0.44640 0.00230 0.59800 -0.60000
O 	O 	0.44000 0.18880 0.72140 -0.62900
