data_crystal

_cell_length_a 7.20390
_cell_length_b 8.73090
_cell_length_c 16.23400
_cell_angle_alpha 90.00000
_cell_angle_beta  90.00000
_cell_angle_gamma 90.00000

_symmetry_space_group_name_	'P 1'
_symmetry_space_group_name_H-M	'P 1'

loop_
_symmetry_equiv_pos_as_xyz
  x,y,z

loop_
_atom_site_label
_atom_site_type_symbol
_atom_site_fract_x
_atom_site_fract_y
_atom_site_fract_z
_atom_site_charge
Zn	Zn	0.25785 0.45765 0.95897 1.20100
Zn	Zn	0.24215 0.54235 0.45897 1.20200
Zn	Zn	0.74215 0.95765 0.54103 1.20200
Zn	Zn	0.75785 0.04235 0.04103 1.20100
H 	H 	0.09220 0.67420 0.61640 -0.04800
H 	H 	0.84330 0.52250 0.91940 -0.03600
H 	H 	0.80900 0.62750 0.68020 0.00600
H 	H 	0.66920 0.60510 0.80860 0.05300
H 	H 	0.27590 0.46920 0.77900 -0.01800
H 	H 	0.23400 0.46710 0.54160 -0.12000
H 	H 	0.03650 0.44400 0.56580 0.07100
H 	H 	0.31610 0.74180 0.69210 0.21300
H 	H 	0.41870 0.58690 0.67880 0.20000
H 	H 	0.40780 0.32580 0.11640 -0.04800
H 	H 	0.65670 0.47750 0.41940 -0.03500
H 	H 	0.69100 0.37250 0.18020 0.00700
H 	H 	0.83080 0.39490 0.30860 0.05200
H 	H 	0.22410 0.53080 0.27900 -0.01800
H 	H 	0.26600 0.53290 0.04160 -0.11900
H 	H 	0.46350 0.55600 0.06580 0.07200
H 	H 	0.18390 0.25820 0.19210 0.21400
H 	H 	0.08130 0.41310 0.17880 0.20000
H 	H 	0.90780 0.17420 0.88360 -0.04700
H 	H 	0.15670 0.02250 0.58060 -0.03500
H 	H 	0.19100 0.12750 0.81980 0.00700
H 	H 	0.33080 0.10510 0.69140 0.05200
H 	H 	0.72410 0.96920 0.72100 -0.02000
H 	H 	0.76600 0.96710 0.95840 -0.12000
H 	H 	0.96350 0.94400 0.93420 0.07100
H 	H 	0.68390 0.24180 0.80790 0.21300
H 	H 	0.58130 0.08690 0.82120 0.20000
H 	H 	0.59220 0.82580 0.38360 -0.04700
H 	H 	0.34330 0.97750 0.08060 -0.03500
H 	H 	0.30900 0.87250 0.31980 0.00700
H 	H 	0.16920 0.89490 0.19140 0.05300
H 	H 	0.77590 0.03080 0.22100 -0.01800
H 	H 	0.73400 0.03290 0.45840 -0.12000
H 	H 	0.53650 0.05600 0.43420 0.07100
H 	H 	0.81610 0.75820 0.30790 0.21200
H 	H 	0.91870 0.91310 0.32120 0.19900
C 	C 	0.16450 0.58730 0.63710 0.26600
C 	C 	0.06210 0.55560 0.71650 -0.13700
C 	C 	0.89910 0.53030 0.86790 0.07200
C 	C 	0.87710 0.59350 0.72530 0.04700
C 	C 	0.79390 0.58050 0.80170 -0.14700
C 	C 	0.15370 0.50150 0.78520 0.05800
C 	C 	0.33890 0.66140 0.65210 -0.61900
C 	C 	0.44990 0.73210 0.58290 0.55100
C 	C 	0.33550 0.41270 0.13710 0.26500
C 	C 	0.43790 0.44440 0.21650 -0.13400
C 	C 	0.60090 0.46970 0.36790 0.06900
C 	C 	0.62290 0.40650 0.22530 0.04400
C 	C 	0.70610 0.41950 0.30170 -0.14400
C 	C 	0.34630 0.49850 0.28520 0.05800
C 	C 	0.16110 0.33860 0.15210 -0.61900
C 	C 	0.05010 0.26790 0.08290 0.55200
C 	C 	0.83550 0.08730 0.86290 0.26600
C 	C 	0.93790 0.05560 0.78350 -0.13300
C 	C 	0.10090 0.03030 0.63210 0.06900
C 	C 	0.12290 0.09350 0.77470 0.04100
C 	C 	0.20610 0.08050 0.69830 -0.14300
C 	C 	0.84630 0.00150 0.71480 0.06000
C 	C 	0.66110 0.16140 0.84790 -0.61900
C 	C 	0.55010 0.23210 0.91710 0.55100
C 	C 	0.66450 0.91270 0.36290 0.26300
C 	C 	0.56210 0.94440 0.28350 -0.13300
C 	C 	0.39910 0.96970 0.13210 0.07000
C 	C 	0.37710 0.90650 0.27470 0.04400
C 	C 	0.29390 0.91950 0.19830 -0.14400
C 	C 	0.65370 0.99850 0.21480 0.05800
C 	C 	0.83890 0.83860 0.34790 -0.61700
C 	C 	0.94990 0.76790 0.41710 0.54900
N 	N 	0.07730 0.49280 0.86030 -0.26500
N 	N 	0.14230 0.48720 0.57370 -0.28200
N 	N 	0.42270 0.50720 0.36030 -0.26300
N 	N 	0.35770 0.51280 0.07370 -0.28200
N 	N 	0.92270 0.99280 0.63970 -0.26400
N 	N 	0.85770 0.98720 0.92630 -0.28200
N 	N 	0.57730 0.00720 0.13970 -0.26300
N 	N 	0.64230 0.01280 0.42630 -0.28100
O 	O 	0.57210 0.82410 0.60530 -0.54100
O 	O 	0.42100 0.69840 0.50940 -0.52900
O 	O 	0.92790 0.17590 0.10530 -0.54200
O 	O 	0.07900 0.30160 0.00940 -0.52800
O 	O 	0.42790 0.32410 0.89470 -0.54100
O 	O 	0.57900 0.19840 0.99060 -0.52800
O 	O 	0.07210 0.67590 0.39470 -0.54000
O 	O 	0.92100 0.80160 0.49060 -0.52800
