data_crystal

_cell_length_a 9.32430
_cell_length_b 14.45350
_cell_length_c 26.93900
_cell_angle_alpha 90.00000
_cell_angle_beta  90.00000
_cell_angle_gamma 93.06800

_symmetry_space_group_name_	'P 1'
_symmetry_space_group_name_H-M	'P 1'

loop_
_symmetry_equiv_pos_as_xyz
  x,y,z

loop_
_atom_site_label
_atom_site_type_symbol
_atom_site_fract_x
_atom_site_fract_y
_atom_site_fract_z
_atom_site_charge
Zn	Zn	0.64765 0.12181 0.32096 1.17900
Zn	Zn	0.96767 0.11193 0.37960 1.23100
Zn	Zn	0.35235 0.37819 0.82096 1.17900
Zn	Zn	0.03233 0.38807 0.87960 1.23200
Zn	Zn	0.35235 0.87819 0.67904 1.18000
Zn	Zn	0.03233 0.88807 0.62040 1.23200
Zn	Zn	0.64765 0.62181 0.17904 1.18000
Zn	Zn	0.96767 0.61193 0.12040 1.23300
H 	H 	0.10410 0.34720 0.36490 0.07400
H 	H 	0.16080 0.56070 0.26920 0.07300
H 	H 	0.80780 0.38800 0.26030 0.04000
H 	H 	0.33670 0.37210 0.37180 0.04600
H 	H 	0.25980 0.43630 0.40960 0.04300
H 	H 	0.60310 0.39440 0.36120 0.04400
H 	H 	0.81390 0.46500 0.38940 0.05500
H 	H 	0.60710 0.65240 0.46760 0.05300
H 	H 	0.41180 0.55020 0.45630 0.05300
H 	H 	0.00470 0.52160 0.41590 0.05000
H 	H 	0.20400 0.61720 0.43310 0.06800
H 	H 	0.00110 0.76440 0.53130 0.05400
H 	H 	0.78940 0.69350 0.50300 0.04800
H 	H 	0.25620 0.76000 0.54270 0.04200
H 	H 	0.34130 0.68350 0.51550 0.04400
H 	H 	0.44340 0.91500 0.41870 0.08800
H 	H 	0.80910 0.96800 0.49380 0.06900
H 	H 	0.51070 0.78150 0.54540 0.07400
H 	H 	0.89590 0.15280 0.86490 0.07500
H 	H 	0.83920 0.93930 0.76920 0.07400
H 	H 	0.19220 0.11200 0.76030 0.04200
H 	H 	0.66330 0.12790 0.87180 0.04600
H 	H 	0.74020 0.06370 0.90960 0.04300
H 	H 	0.39690 0.10560 0.86120 0.04400
H 	H 	0.18610 0.03500 0.88940 0.05400
H 	H 	0.39290 0.84760 0.96760 0.05200
H 	H 	0.58820 0.94980 0.95630 0.05400
H 	H 	0.99530 0.97840 0.91590 0.04900
H 	H 	0.79600 0.88280 0.93310 0.07000
H 	H 	0.99890 0.73560 0.03130 0.05400
H 	H 	0.21060 0.80650 0.00300 0.05000
H 	H 	0.74380 0.74000 0.04270 0.04300
H 	H 	0.65870 0.81650 0.01550 0.04500
H 	H 	0.55660 0.58500 0.91870 0.08800
H 	H 	0.19090 0.53200 0.99380 0.06800
H 	H 	0.48930 0.71850 0.04540 0.07400
H 	H 	0.89590 0.65280 0.63510 0.07400
H 	H 	0.83920 0.43930 0.73080 0.07300
H 	H 	0.19220 0.61200 0.73970 0.04000
H 	H 	0.66330 0.62790 0.62820 0.04600
H 	H 	0.74020 0.56370 0.59040 0.04300
H 	H 	0.39690 0.60560 0.63880 0.04400
H 	H 	0.18610 0.53500 0.61060 0.05500
H 	H 	0.39290 0.34760 0.53240 0.05300
H 	H 	0.58820 0.44980 0.54370 0.05300
H 	H 	0.99530 0.47840 0.58410 0.05000
H 	H 	0.79600 0.38280 0.56690 0.06800
H 	H 	0.99890 0.23560 0.46870 0.05400
H 	H 	0.21060 0.30650 0.49700 0.04800
H 	H 	0.74380 0.24000 0.45730 0.04200
H 	H 	0.65870 0.31650 0.48450 0.04400
H 	H 	0.55660 0.08500 0.58130 0.08800
H 	H 	0.19090 0.03200 0.50620 0.06900
H 	H 	0.48930 0.21850 0.45460 0.07400
H 	H 	0.10410 0.84720 0.13510 0.07500
H 	H 	0.16080 0.06070 0.23080 0.07400
H 	H 	0.80780 0.88800 0.23970 0.04200
H 	H 	0.33670 0.87210 0.12820 0.04600
H 	H 	0.25980 0.93630 0.09040 0.04300
H 	H 	0.60310 0.89440 0.13880 0.04400
H 	H 	0.81390 0.96500 0.11060 0.05400
H 	H 	0.60710 0.15240 0.03240 0.05200
H 	H 	0.41180 0.05020 0.04370 0.05400
H 	H 	0.00470 0.02160 0.08410 0.04900
H 	H 	0.20400 0.11720 0.06690 0.07000
H 	H 	0.00110 0.26440 0.96870 0.05400
H 	H 	0.78940 0.19350 0.99700 0.05000
H 	H 	0.25620 0.26000 0.95730 0.04300
H 	H 	0.34130 0.18350 0.98450 0.04500
H 	H 	0.44340 0.41500 0.08130 0.08800
H 	H 	0.80910 0.46800 0.00620 0.06800
H 	H 	0.51070 0.28150 0.95460 0.07400
C 	C 	0.94440 0.35490 0.31550 -0.09600
C 	C 	0.07170 0.38110 0.33819 -0.08200
C 	C 	0.15200 0.45830 0.32139 0.13600
C 	C 	0.10630 0.50940 0.28072 -0.07800
C 	C 	0.97700 0.48120 0.25802 -0.07800
C 	C 	0.89500 0.40530 0.27529 0.01600
C 	C 	0.86690 0.26810 0.33151 0.40100
C 	C 	0.92360 0.53260 0.21364 0.36400
C 	C 	0.32810 0.43570 0.38247 -0.02400
C 	C 	0.47350 0.47760 0.39907 0.03400
C 	C 	0.60160 0.44410 0.38307 -0.06300
C 	C 	0.72820 0.48730 0.40071 -0.05600
C 	C 	0.73770 0.56110 0.43389 0.01900
C 	C 	0.61110 0.59730 0.44995 -0.05700
C 	C 	0.49260 0.54260 0.43681 -0.05700
C 	C 	0.87460 0.60590 0.45457 0.00700
C 	C 	0.00120 0.57330 0.43629 -0.03800
C 	C 	0.12100 0.62510 0.45143 -0.07200
C 	C 	0.13460 0.68870 0.49101 0.05500
C 	C 	0.00370 0.71710 0.50803 -0.06700
C 	C 	0.87620 0.67490 0.49038 -0.03900
C 	C 	0.27190 0.73050 0.51102 -0.03800
C 	C 	0.45280 0.84280 0.48329 0.17100
C 	C 	0.50030 0.90530 0.44634 -0.09800
C 	C 	0.63280 0.95260 0.45131 -0.06400
C 	C 	0.71930 0.93700 0.49145 -0.00500
C 	C 	0.67340 0.87500 0.52877 -0.04100
C 	C 	0.54000 0.82640 0.52226 -0.12500
C 	C 	0.68660 0.01780 0.41190 0.41700
C 	C 	0.76660 0.85840 0.57109 0.31100
C 	C 	0.05560 0.14510 0.81550 -0.08900
C 	C 	0.92830 0.11890 0.83819 -0.08900
C 	C 	0.84800 0.04170 0.82139 0.13600
C 	C 	0.89370 0.99060 0.78072 -0.07900
C 	C 	0.02300 0.01880 0.75802 -0.07100
C 	C 	0.10500 0.09470 0.77529 0.01100
C 	C 	0.13310 0.23190 0.83151 0.40000
C 	C 	0.07640 0.96740 0.71364 0.35600
C 	C 	0.67190 0.06430 0.88247 -0.02400
C 	C 	0.52650 0.02240 0.89907 0.03600
C 	C 	0.39840 0.05590 0.88307 -0.06500
C 	C 	0.27180 0.01270 0.90071 -0.05300
C 	C 	0.26230 0.93890 0.93389 0.01600
C 	C 	0.38890 0.90270 0.94995 -0.05500
C 	C 	0.50740 0.95740 0.93681 -0.05900
C 	C 	0.12540 0.89410 0.95457 0.00300
C 	C 	0.99880 0.92670 0.93629 -0.03000
C 	C 	0.87900 0.87490 0.95143 -0.07500
C 	C 	0.86540 0.81130 0.99101 0.05800
C 	C 	0.99630 0.78290 0.00803 -0.06500
C 	C 	0.12380 0.82510 0.99038 -0.04400
C 	C 	0.72810 0.76950 0.01102 -0.04100
C 	C 	0.54720 0.65720 0.98329 0.17100
C 	C 	0.49970 0.59470 0.94634 -0.09700
C 	C 	0.36720 0.54740 0.95131 -0.06600
C 	C 	0.28070 0.56300 0.99145 -0.00500
C 	C 	0.32660 0.62500 0.02877 -0.04100
C 	C 	0.46000 0.67360 0.02226 -0.12500
C 	C 	0.31340 0.48220 0.91190 0.41800
C 	C 	0.23340 0.64160 0.07109 0.31100
C 	C 	0.05560 0.64510 0.68450 -0.09600
C 	C 	0.92830 0.61890 0.66181 -0.08200
C 	C 	0.84800 0.54170 0.67861 0.13600
C 	C 	0.89370 0.49060 0.71928 -0.07800
C 	C 	0.02300 0.51880 0.74198 -0.07800
C 	C 	0.10500 0.59470 0.72471 0.01600
C 	C 	0.13310 0.73190 0.66849 0.40100
C 	C 	0.07640 0.46740 0.78636 0.36400
C 	C 	0.67190 0.56430 0.61753 -0.02400
C 	C 	0.52650 0.52240 0.60093 0.03400
C 	C 	0.39840 0.55590 0.61693 -0.06300
C 	C 	0.27180 0.51270 0.59929 -0.05600
C 	C 	0.26230 0.43890 0.56611 0.01900
C 	C 	0.38890 0.40270 0.55005 -0.05700
C 	C 	0.50740 0.45740 0.56319 -0.05700
C 	C 	0.12540 0.39410 0.54543 0.00700
C 	C 	0.99880 0.42670 0.56371 -0.03800
C 	C 	0.87900 0.37490 0.54857 -0.07200
C 	C 	0.86540 0.31130 0.50899 0.05500
C 	C 	0.99630 0.28290 0.49197 -0.06700
C 	C 	0.12380 0.32510 0.50962 -0.03900
C 	C 	0.72810 0.26950 0.48898 -0.03800
C 	C 	0.54720 0.15720 0.51671 0.17100
C 	C 	0.49970 0.09470 0.55366 -0.09800
C 	C 	0.36720 0.04740 0.54869 -0.06400
C 	C 	0.28070 0.06300 0.50855 -0.00500
C 	C 	0.32660 0.12500 0.47123 -0.04100
C 	C 	0.46000 0.17360 0.47774 -0.12500
C 	C 	0.31340 0.98220 0.58810 0.41700
C 	C 	0.23340 0.14160 0.42891 0.31100
C 	C 	0.94440 0.85490 0.18450 -0.08900
C 	C 	0.07170 0.88110 0.16181 -0.08900
C 	C 	0.15200 0.95830 0.17861 0.13600
C 	C 	0.10630 0.00940 0.21928 -0.07900
C 	C 	0.97700 0.98120 0.24198 -0.07100
C 	C 	0.89500 0.90530 0.22471 0.01100
C 	C 	0.86690 0.76810 0.16849 0.40000
C 	C 	0.92360 0.03260 0.28636 0.35600
C 	C 	0.32810 0.93570 0.11753 -0.02400
C 	C 	0.47350 0.97760 0.10093 0.03600
C 	C 	0.60160 0.94410 0.11693 -0.06500
C 	C 	0.72820 0.98730 0.09929 -0.05300
C 	C 	0.73770 0.06110 0.06611 0.01600
C 	C 	0.61110 0.09730 0.05005 -0.05500
C 	C 	0.49260 0.04260 0.06319 -0.05900
C 	C 	0.87460 0.10590 0.04543 0.00300
C 	C 	0.00120 0.07330 0.06371 -0.03000
C 	C 	0.12100 0.12510 0.04857 -0.07500
C 	C 	0.13460 0.18870 0.00899 0.05800
C 	C 	0.00370 0.21710 0.99197 -0.06500
C 	C 	0.87620 0.17490 0.00962 -0.04400
C 	C 	0.27190 0.23050 0.98898 -0.04100
C 	C 	0.45280 0.34280 0.01671 0.17100
C 	C 	0.50030 0.40530 0.05366 -0.09700
C 	C 	0.63280 0.45260 0.04869 -0.06600
C 	C 	0.71930 0.43700 0.00855 -0.00500
C 	C 	0.67340 0.37500 0.97123 -0.04100
C 	C 	0.54000 0.32640 0.97774 -0.12500
C 	C 	0.68660 0.51780 0.08810 0.41800
C 	C 	0.76660 0.35840 0.92891 0.31100
O 	O 	0.77140 0.23287 0.30329 -0.51600
O 	O 	0.90010 0.23681 0.37184 -0.52200
O 	O 	0.28190 0.48999 0.34276 -0.21100
O 	O 	0.32300 0.79906 0.47403 -0.21000
O 	O 	0.73310 0.80130 0.60522 -0.30900
O 	O 	0.88850 0.90341 0.57131 -0.44000
O 	O 	0.81580 0.04050 0.41416 -0.50700
O 	O 	0.79320 0.52945 0.20532 -0.49000
O 	O 	0.02170 0.57204 0.18605 -0.46900
O 	O 	0.60020 0.04558 0.37995 -0.51100
O 	O 	0.22860 0.26713 0.80329 -0.51500
O 	O 	0.09990 0.26319 0.87184 -0.52100
O 	O 	0.71810 0.01001 0.84276 -0.21200
O 	O 	0.67700 0.70094 0.97403 -0.20800
O 	O 	0.26690 0.69870 0.10522 -0.30900
O 	O 	0.11150 0.59659 0.07131 -0.44100
O 	O 	0.18420 0.45950 0.91416 -0.50600
O 	O 	0.20680 0.97055 0.70532 -0.48900
O 	O 	0.97830 0.92796 0.68605 -0.46500
O 	O 	0.39980 0.45442 0.87995 -0.51100
O 	O 	0.22860 0.76713 0.69671 -0.51600
O 	O 	0.09990 0.76319 0.62816 -0.52200
O 	O 	0.71810 0.51001 0.65724 -0.21100
O 	O 	0.67700 0.20094 0.52597 -0.21000
O 	O 	0.26690 0.19870 0.39478 -0.30900
O 	O 	0.11150 0.09659 0.42869 -0.44000
O 	O 	0.18420 0.95950 0.58584 -0.50700
O 	O 	0.20680 0.47055 0.79468 -0.49000
O 	O 	0.97830 0.42796 0.81395 -0.46900
O 	O 	0.39980 0.95442 0.62005 -0.51100
O 	O 	0.77140 0.73287 0.19671 -0.51500
O 	O 	0.90010 0.73681 0.12816 -0.52100
O 	O 	0.28190 0.98999 0.15724 -0.21200
O 	O 	0.32300 0.29906 0.02597 -0.20800
O 	O 	0.73310 0.30130 0.89478 -0.30900
O 	O 	0.88850 0.40341 0.92869 -0.44100
O 	O 	0.81580 0.54050 0.08584 -0.50600
O 	O 	0.79320 0.02945 0.29468 -0.48900
O 	O 	0.02170 0.07204 0.31395 -0.46500
O 	O 	0.60020 0.54558 0.12005 -0.51100
