data_crystal

_cell_length_a 12.40300
_cell_length_b 15.72900
_cell_length_c 15.72900
_cell_angle_alpha 120.00000
_cell_angle_beta  90.00000
_cell_angle_gamma 90.00000

_symmetry_space_group_name_	'P 1'
_symmetry_space_group_name_H-M	'P 1'

loop_
_symmetry_equiv_pos_as_xyz
  x,y,z

loop_
_atom_site_label
_atom_site_type_symbol
_atom_site_fract_x
_atom_site_fract_y
_atom_site_fract_z
_atom_site_charge
Zn	Zn	0.83333 -0.00000 0.57877 1.13300
Zn	Zn	0.50000 0.57877 -0.00000 1.13400
Zn	Zn	0.16667 0.42123 0.42123 1.14200
H 	H 	0.84370 0.81770 0.36750 0.01300
H 	H 	0.02330 0.05350 0.47250 -0.01300
H 	H 	0.22050 0.05860 0.25110 0.15500
H 	H 	0.16380 0.95800 0.18240 0.18100
H 	H 	0.23260 0.97150 0.27200 0.17400
H 	H 	0.18430 0.19530 0.32730 0.00400
H 	H 	0.93440 0.37150 0.42940 0.01100
H 	H 	0.70200 0.28480 0.35180 0.11200
H 	H 	0.76720 0.37280 0.43440 0.10600
H 	H 	0.66600 0.33160 0.46180 0.10900
H 	H 	0.51037 0.54980 0.18230 0.01300
H 	H 	0.68997 0.41900 0.94650 0.04800
H 	H 	0.88717 0.19250 0.94140 0.05200
H 	H 	0.83047 0.22440 0.04200 0.04700
H 	H 	0.89927 0.30050 0.02850 0.03400
H 	H 	0.85097 0.13200 0.80470 0.00800
H 	H 	0.60107 0.05790 0.62850 0.00700
H 	H 	0.36867 0.06700 0.71520 0.10200
H 	H 	0.43387 0.06160 0.62720 0.09600
H 	H 	0.33267 0.13020 0.66840 0.10100
H 	H 	0.17703 0.63250 0.45020 0.01200
H 	H 	0.35663 0.52750 0.58100 0.01700
H 	H 	0.55383 0.74890 0.80750 0.11800
H 	H 	0.49713 0.81760 0.77560 0.13300
H 	H 	0.56593 0.72800 0.69950 0.11500
H 	H 	0.51763 0.67270 0.86800 0.01300
H 	H 	0.26773 0.57060 0.94210 0.01600
H 	H 	0.03533 0.64820 0.93300 0.12600
H 	H 	0.10053 0.56560 0.93840 0.11600
H 	H 	0.99933 0.53820 0.86980 0.11500
H 	H 	0.15630 0.45020 0.63250 0.01300
H 	H 	0.97670 0.58100 0.52750 0.01500
H 	H 	0.77950 0.80750 0.74890 0.11900
H 	H 	0.83620 0.77560 0.81760 0.13300
H 	H 	0.76740 0.69950 0.72800 0.11500
H 	H 	0.81570 0.86800 0.67270 0.01300
H 	H 	0.06560 0.94210 0.57060 0.01500
H 	H 	0.29800 0.93300 0.64820 0.12800
H 	H 	0.23280 0.93840 0.56560 0.11800
H 	H 	0.33400 0.86980 0.53820 0.11900
H 	H 	0.48963 0.36750 0.81770 0.01300
H 	H 	0.31003 0.47250 0.05350 -0.01500
H 	H 	0.11283 0.25110 0.05860 0.16200
H 	H 	0.16953 0.18240 0.95800 0.19000
H 	H 	0.10073 0.27200 0.97150 0.18300
H 	H 	0.14903 0.32730 0.19530 0.00300
H 	H 	0.39893 0.42940 0.37150 0.01100
H 	H 	0.63133 0.35180 0.28480 0.11200
H 	H 	0.56613 0.43440 0.37280 0.10600
H 	H 	0.66733 0.46180 0.33160 0.10900
H 	H 	0.82297 0.18230 0.54980 0.01200
H 	H 	0.64337 0.94650 0.41900 0.05100
H 	H 	0.44617 0.94140 0.19250 0.05100
H 	H 	0.50287 0.04200 0.22440 0.04500
H 	H 	0.43407 0.02850 0.30050 0.03200
H 	H 	0.48237 0.80470 0.13200 0.00900
H 	H 	0.73227 0.62850 0.05790 0.00700
H 	H 	0.96467 0.71520 0.06700 0.10100
H 	H 	0.89947 0.62720 0.06160 0.09500
H 	H 	0.00067 0.66840 0.13020 0.09900
C 	C 	0.92080 0.83540 0.26430 0.11500
C 	C 	0.88990 0.85930 0.35880 -0.03800
C 	C 	0.99480 0.99700 0.41970 0.00400
C 	C 	0.02380 0.97200 0.32510 0.10900
C 	C 	0.18460 0.00340 0.24880 -0.47200
C 	C 	0.05010 0.13100 0.34530 0.10000
C 	C 	0.11300 0.20690 0.34840 -0.05500
C 	C 	0.96590 0.31040 0.40810 -0.05800
C 	C 	0.90410 0.23360 0.40410 0.10900
C 	C 	0.72700 0.31460 0.41860 -0.29600
C 	C 	0.58747 0.42890 0.16460 0.11600
C 	C 	0.55657 0.49950 0.14070 -0.04600
C 	C 	0.66147 0.42270 0.00300 -0.09300
C 	C 	0.69047 0.35310 0.02800 0.11900
C 	C 	0.85127 0.24540 0.99660 -0.11200
C 	C 	0.71677 0.21430 0.86900 0.11300
C 	C 	0.77967 0.14150 0.79310 -0.06200
C 	C 	0.63257 0.09770 0.68960 -0.05500
C 	C 	0.57077 0.17050 0.76640 0.10900
C 	C 	0.39367 0.10400 0.68540 -0.28100
C 	C 	0.25413 0.73570 0.57110 0.11600
C 	C 	0.22323 0.64120 0.50050 -0.04200
C 	C 	0.32813 0.58030 0.57730 -0.04600
C 	C 	0.35713 0.67490 0.64690 0.11700
C 	C 	0.51793 0.75120 0.75460 -0.31800
C 	C 	0.38343 0.65470 0.78570 0.10800
C 	C 	0.44633 0.65160 0.85850 -0.05400
C 	C 	0.29923 0.59190 0.90230 -0.05200
C 	C 	0.23743 0.59590 0.82950 0.11200
C 	C 	0.06033 0.58140 0.89600 -0.30800
C 	C 	0.07920 0.57110 0.73570 0.11600
C 	C 	0.11010 0.50050 0.64120 -0.04100
C 	C 	0.00520 0.57730 0.58030 -0.04300
C 	C 	0.97620 0.64690 0.67490 0.11400
C 	C 	0.81540 0.75460 0.75120 -0.31800
C 	C 	0.94990 0.78570 0.65470 0.10800
C 	C 	0.88700 0.85850 0.65160 -0.05400
C 	C 	0.03410 0.90230 0.59190 -0.05400
C 	C 	0.09590 0.82950 0.59590 0.11200
C 	C 	0.27300 0.89600 0.58140 -0.31500
C 	C 	0.41253 0.26430 0.83540 0.11500
C 	C 	0.44343 0.35880 0.85930 -0.03800
C 	C 	0.33853 0.41970 0.99700 0.00200
C 	C 	0.30953 0.32510 0.97200 0.11400
C 	C 	0.14873 0.24880 0.00340 -0.49500
C 	C 	0.28323 0.34530 0.13100 0.09600
C 	C 	0.22033 0.34840 0.20690 -0.05300
C 	C 	0.36743 0.40810 0.31040 -0.05400
C 	C 	0.42923 0.40410 0.23360 0.10800
C 	C 	0.60633 0.41860 0.31460 -0.29600
C 	C 	0.74587 0.16460 0.42890 0.11600
C 	C 	0.77677 0.14070 0.49950 -0.04600
C 	C 	0.67187 0.00300 0.42270 -0.09700
C 	C 	0.64287 0.02800 0.35310 0.11900
C 	C 	0.48207 0.99660 0.24540 -0.10500
C 	C 	0.61657 0.86900 0.21430 0.11400
C 	C 	0.55367 0.79310 0.14150 -0.06200
C 	C 	0.70077 0.68960 0.09770 -0.05500
C 	C 	0.76257 0.76640 0.17050 0.10900
C 	C 	0.93967 0.68540 0.10400 -0.27800
N 	N 	0.98930 0.89050 0.24690 -0.13400
N 	N 	0.92550 0.94060 0.43690 -0.21400
N 	N 	0.08980 0.03680 0.31030 -0.09000
N 	N 	0.94640 0.14530 0.37300 -0.14200
N 	N 	0.06920 0.29620 0.38170 -0.23800
N 	N 	0.79600 0.24520 0.42980 -0.10800
N 	N 	0.65597 0.35640 0.10950 -0.14200
N 	N 	0.59217 0.49630 0.05940 -0.20800
N 	N 	0.75647 0.27350 0.96320 -0.12100
N 	N 	0.61307 0.22770 0.85470 -0.13500
N 	N 	0.73587 0.08550 0.70380 -0.24200
N 	N 	0.46267 0.18460 0.75480 -0.11000
N 	N 	0.32263 0.75310 0.64360 -0.13600
N 	N 	0.25883 0.56310 0.50370 -0.21200
N 	N 	0.42313 0.68970 0.72650 -0.10200
N 	N 	0.27973 0.62700 0.77230 -0.13600
N 	N 	0.40253 0.61830 0.91450 -0.23200
N 	N 	0.12933 0.57020 0.81540 -0.10600
N 	N 	0.01070 0.64360 0.75310 -0.13500
N 	N 	0.07450 0.50370 0.56310 -0.21200
N 	N 	0.91020 0.72650 0.68970 -0.10100
N 	N 	0.05360 0.77230 0.62700 -0.13600
N 	N 	0.93080 0.91450 0.61830 -0.23100
N 	N 	0.20400 0.81540 0.57020 -0.10500
N 	N 	0.34403 0.24690 0.89050 -0.13600
N 	N 	0.40783 0.43690 0.94060 -0.21400
N 	N 	0.24353 0.31030 0.03680 -0.08900
N 	N 	0.38693 0.37300 0.14530 -0.13900
N 	N 	0.26413 0.38170 0.29620 -0.24000
N 	N 	0.53733 0.42980 0.24520 -0.10800
N 	N 	0.67737 0.10950 0.35640 -0.14200
N 	N 	0.74117 0.05940 0.49630 -0.20800
N 	N 	0.57687 0.96320 0.27350 -0.12100
N 	N 	0.72027 0.85470 0.22770 -0.13500
N 	N 	0.59747 0.70380 0.08550 -0.24200
N 	N 	0.87067 0.75480 0.18460 -0.11000
