data_crystal

_cell_length_a 9.13360
_cell_length_b 16.69120
_cell_length_c 20.44320
_cell_angle_alpha 110.02300
_cell_angle_beta  90.00000
_cell_angle_gamma 90.00000

_symmetry_space_group_name_	'P 1'
_symmetry_space_group_name_H-M	'P 1'

loop_
_symmetry_equiv_pos_as_xyz
  x,y,z

loop_
_atom_site_label
_atom_site_type_symbol
_atom_site_fract_x
_atom_site_fract_y
_atom_site_fract_z
_atom_site_charge
Zn	Zn	0.79978 0.23191 0.33815 1.20700
Zn	Zn	0.79978 0.26809 0.66185 1.20700
Zn	Zn	0.29978 0.23191 0.83815 1.20900
Zn	Zn	0.29978 0.26809 0.16185 1.20600
Zn	Zn	0.20022 0.76809 0.66185 1.20700
Zn	Zn	0.20022 0.73191 0.33815 1.20700
Zn	Zn	0.70022 0.76809 0.16185 1.20600
Zn	Zn	0.70022 0.73191 0.83815 1.20800
Zn	Zn	0.74254 0.25000 0.50000 1.22800
Zn	Zn	0.24254 0.25000 -0.00000 1.19700
Zn	Zn	0.25746 0.75000 0.50000 1.22700
Zn	Zn	0.75746 0.75000 -0.00000 1.19700
H 	H 	0.38710 0.62180 0.22160 -0.07000
H 	H 	0.38710 0.87820 0.77840 -0.07700
H 	H 	0.88710 0.62180 0.72160 -0.07300
H 	H 	0.88710 0.87820 0.27840 -0.07400
H 	H 	0.61290 0.37820 0.77840 -0.07700
H 	H 	0.61290 0.12180 0.22160 -0.06900
H 	H 	0.11290 0.37820 0.27840 -0.07300
H 	H 	0.11290 0.12180 0.72160 -0.07200
H 	H 	0.66470 0.96670 0.27330 0.05700
H 	H 	0.66470 0.53330 0.72670 0.05800
H 	H 	0.16470 0.96670 0.77330 0.06100
H 	H 	0.16470 0.53330 0.22670 0.05500
H 	H 	0.33530 0.03330 0.72670 0.05800
H 	H 	0.33530 0.46670 0.27330 0.05700
H 	H 	0.83530 0.03330 0.22670 0.05500
H 	H 	0.83530 0.46670 0.77330 0.06000
H 	H 	0.43770 0.05100 0.45390 0.01400
H 	H 	0.43770 0.44900 0.54610 0.01600
H 	H 	0.93770 0.05100 0.95390 0.04200
H 	H 	0.93770 0.44900 0.04610 -0.01100
H 	H 	0.56230 0.94900 0.54610 0.01800
H 	H 	0.56230 0.55100 0.45390 0.01600
H 	H 	0.06230 0.94900 0.04610 -0.00900
H 	H 	0.06230 0.55100 0.95390 0.04400
H 	H 	0.32170 0.92220 0.42980 0.05800
H 	H 	0.32170 0.57780 0.57020 0.05600
H 	H 	0.82170 0.92220 0.92980 0.07500
H 	H 	0.82170 0.57780 0.07020 0.03900
H 	H 	0.67830 0.07780 0.57020 0.05400
H 	H 	0.67830 0.42220 0.42980 0.05600
H 	H 	0.17830 0.07780 0.07020 0.03800
H 	H 	0.17830 0.42220 0.92980 0.07300
H 	H 	0.38880 0.69540 0.10820 0.16200
H 	H 	0.38880 0.80460 0.89180 0.21100
H 	H 	0.88880 0.69540 0.60820 0.18600
H 	H 	0.88880 0.80460 0.39180 0.18500
H 	H 	0.61120 0.30460 0.89180 0.21200
H 	H 	0.61120 0.19540 0.10820 0.16300
H 	H 	0.11120 0.30460 0.39180 0.18600
H 	H 	0.11120 0.19540 0.60820 0.18700
H 	H 	0.24280 0.69490 0.14840 0.17800
H 	H 	0.24280 0.80510 0.85160 0.21800
H 	H 	0.74280 0.69490 0.64840 0.19800
H 	H 	0.74280 0.80510 0.35160 0.19700
H 	H 	0.75720 0.30510 0.85160 0.21900
H 	H 	0.75720 0.19490 0.14840 0.17900
H 	H 	0.25720 0.30510 0.35160 0.19800
H 	H 	0.25720 0.19490 0.64840 0.19900
H 	H 	0.31280 0.60860 0.10130 0.17200
H 	H 	0.31280 0.89140 0.89870 0.22800
H 	H 	0.81280 0.60860 0.60130 0.20000
H 	H 	0.81280 0.89140 0.39870 0.19900
H 	H 	0.68720 0.39140 0.89870 0.23100
H 	H 	0.68720 0.10860 0.10130 0.17400
H 	H 	0.18720 0.39140 0.39870 0.20100
H 	H 	0.18720 0.10860 0.60130 0.20200
H 	H 	0.92950 0.32150 0.44850 0.21300
H 	H 	0.92950 0.17850 0.55150 0.21300
H 	H 	0.42950 0.32150 0.94850 0.22800
H 	H 	0.42950 0.17850 0.05150 0.19700
H 	H 	0.07050 0.67850 0.55150 0.21300
H 	H 	0.07050 0.82150 0.44850 0.21200
H 	H 	0.57050 0.67850 0.05150 0.19600
H 	H 	0.57050 0.82150 0.94850 0.22700
H 	H 	0.54320 0.57830 0.14350 0.25500
H 	H 	0.54320 0.92170 0.85650 0.27300
H 	H 	0.04320 0.57830 0.64350 0.26500
H 	H 	0.04320 0.92170 0.35650 0.26300
H 	H 	0.45680 0.42170 0.85650 0.27500
H 	H 	0.45680 0.07830 0.14350 0.25600
H 	H 	0.95680 0.42170 0.35650 0.26400
H 	H 	0.95680 0.07830 0.64350 0.26600
C 	C 	0.42780 0.66040 0.19940 0.24100
C 	C 	0.42780 0.83960 0.80060 0.27100
C 	C 	0.92780 0.66040 0.69940 0.25600
C 	C 	0.92780 0.83960 0.30060 0.25500
C 	C 	0.57220 0.33960 0.80060 0.27200
C 	C 	0.57220 0.16040 0.19940 0.24200
C 	C 	0.07220 0.33960 0.30060 0.25600
C 	C 	0.07220 0.16040 0.69940 0.25700
C 	C 	0.45320 0.75030 0.24820 0.01800
C 	C 	0.45320 0.74970 0.75180 0.01200
C 	C 	0.95320 0.75030 0.74820 0.01600
C 	C 	0.95320 0.74970 0.25180 0.01500
C 	C 	0.54680 0.24970 0.75180 0.01200
C 	C 	0.54680 0.25030 0.24820 0.01900
C 	C 	0.04680 0.24970 0.25180 0.01500
C 	C 	0.04680 0.25030 0.74820 0.01600
C 	C 	0.52930 0.87910 0.29080 0.02100
C 	C 	0.52930 0.62090 0.70920 0.02300
C 	C 	0.02930 0.87910 0.79080 0.02500
C 	C 	0.02930 0.62090 0.20920 0.01900
C 	C 	0.47070 0.12090 0.70920 0.02300
C 	C 	0.47070 0.37910 0.29080 0.02100
C 	C 	0.97070 0.12090 0.20920 0.01900
C 	C 	0.97070 0.37910 0.79080 0.02500
C 	C 	0.42500 0.86650 0.33580 0.06600
C 	C 	0.42500 0.63350 0.66420 0.06400
C 	C 	0.92500 0.86650 0.83580 0.06800
C 	C 	0.92500 0.63350 0.16420 0.06200
C 	C 	0.57500 0.13350 0.66420 0.06300
C 	C 	0.57500 0.36650 0.33580 0.06400
C 	C 	0.07500 0.13350 0.16420 0.06100
C 	C 	0.07500 0.36650 0.83580 0.06600
C 	C 	0.59850 0.95740 0.30450 -0.06400
C 	C 	0.59850 0.54260 0.69550 -0.05800
C 	C 	0.09850 0.95740 0.80450 -0.07000
C 	C 	0.09850 0.54260 0.19550 -0.05400
C 	C 	0.40150 0.04260 0.69550 -0.05200
C 	C 	0.40150 0.45740 0.30450 -0.05800
C 	C 	0.90150 0.04260 0.19550 -0.04800
C 	C 	0.90150 0.45740 0.80450 -0.06300
C 	C 	0.45950 0.00680 0.41280 0.04600
C 	C 	0.45950 0.49320 0.58720 0.03800
C 	C 	0.95950 0.00680 0.91280 0.04400
C 	C 	0.95950 0.49320 0.08720 0.03900
C 	C 	0.54050 0.99320 0.58720 0.03000
C 	C 	0.54050 0.50680 0.41280 0.03800
C 	C 	0.04050 0.99320 0.08720 0.03200
C 	C 	0.04050 0.50680 0.91280 0.03600
C 	C 	0.63800 0.10600 0.38540 0.38300
C 	C 	0.63800 0.39400 0.61460 0.38300
C 	C 	0.13800 0.10600 0.88540 0.37600
C 	C 	0.13800 0.39400 0.11460 0.38700
C 	C 	0.36200 0.89400 0.61460 0.38400
C 	C 	0.36200 0.60600 0.38540 0.38300
C 	C 	0.86200 0.89400 0.11460 0.38800
C 	C 	0.86200 0.60600 0.88540 0.37700
C 	C 	0.56370 0.02130 0.36730 -0.10800
C 	C 	0.56370 0.47870 0.63270 -0.11100
C 	C 	0.06370 0.02130 0.86730 -0.09200
C 	C 	0.06370 0.47870 0.13270 -0.12500
C 	C 	0.43630 0.97870 0.63270 -0.11500
C 	C 	0.43630 0.52130 0.36730 -0.11200
C 	C 	0.93630 0.97870 0.13270 -0.12900
C 	C 	0.93630 0.52130 0.86730 -0.09600
C 	C 	0.38960 0.93100 0.39900 -0.15700
C 	C 	0.38960 0.56900 0.60100 -0.14900
C 	C 	0.88960 0.93100 0.89900 -0.14600
C 	C 	0.88960 0.56900 0.10100 -0.16000
C 	C 	0.61040 0.06900 0.60100 -0.14000
C 	C 	0.61040 0.43100 0.39900 -0.14900
C 	C 	0.11040 0.06900 0.10100 -0.15200
C 	C 	0.11040 0.43100 0.89900 -0.13700
C 	C 	0.33320 0.66530 0.13230 -0.56700
C 	C 	0.33320 0.83470 0.86770 -0.65200
C 	C 	0.83320 0.66530 0.63230 -0.60900
C 	C 	0.83320 0.83470 0.36770 -0.60800
C 	C 	0.66680 0.33470 0.86770 -0.65500
C 	C 	0.66680 0.16530 0.13230 -0.56900
C 	C 	0.16680 0.33470 0.36770 -0.61000
C 	C 	0.16680 0.16530 0.63230 -0.61100
N 	N 	0.54530 0.80240 0.23530 -0.25700
N 	N 	0.54530 0.69760 0.76470 -0.25300
N 	N 	0.04530 0.80240 0.73530 -0.25500
N 	N 	0.04530 0.69760 0.26470 -0.25400
N 	N 	0.45470 0.19760 0.76470 -0.25200
N 	N 	0.45470 0.30240 0.23530 -0.25600
N 	N 	0.95470 0.19760 0.26470 -0.25400
N 	N 	0.95470 0.30240 0.73530 -0.25500
N 	N 	0.37400 0.78270 0.30760 -0.26800
N 	N 	0.37400 0.71730 0.69240 -0.26600
N 	N 	0.87400 0.78270 0.80760 -0.26500
N 	N 	0.87400 0.71730 0.19240 -0.26900
N 	N 	0.62600 0.21730 0.69240 -0.26600
N 	N 	0.62600 0.28270 0.30760 -0.26800
N 	N 	0.12600 0.21730 0.19240 -0.26900
N 	N 	0.12600 0.28270 0.80760 -0.26500
O 	O 	0.61000 0.16020 0.44390 -0.50600
O 	O 	0.61000 0.33980 0.55610 -0.50600
O 	O 	0.11000 0.16020 0.94390 -0.45900
O 	O 	0.11000 0.33980 0.05610 -0.54000
O 	O 	0.39000 0.83980 0.55610 -0.50700
O 	O 	0.39000 0.66020 0.44390 -0.50600
O 	O 	0.89000 0.83980 0.05610 -0.54000
O 	O 	0.89000 0.66020 0.94390 -0.46000
O 	O 	0.72370 0.11840 0.34180 -0.49200
O 	O 	0.72370 0.38160 0.65820 -0.49300
O 	O 	0.22370 0.11840 0.84180 -0.48200
O 	O 	0.22370 0.38160 0.15820 -0.50000
O 	O 	0.27630 0.88160 0.65820 -0.49400
O 	O 	0.27630 0.61840 0.34180 -0.49300
O 	O 	0.77630 0.88160 0.15820 -0.50100
O 	O 	0.77630 0.61840 0.84180 -0.48300
O 	O 	0.85290 0.28260 0.43451 -0.74300
O 	O 	0.85290 0.21740 0.56549 -0.74300
O 	O 	0.35290 0.28260 0.93451 -0.71100
O 	O 	0.35290 0.21740 0.06549 -0.76000
O 	O 	0.14710 0.71740 0.56549 -0.74300
O 	O 	0.14710 0.78260 0.43451 -0.74300
O 	O 	0.64710 0.71740 0.06549 -0.76000
O 	O 	0.64710 0.78260 0.93451 -0.71200
O 	O 	0.54750 0.63050 0.16010 -0.52300
O 	O 	0.54750 0.86950 0.83990 -0.53100
O 	O 	0.04750 0.63050 0.66010 -0.52600
O 	O 	0.04750 0.86950 0.33990 -0.52700
O 	O 	0.45250 0.36950 0.83990 -0.53100
O 	O 	0.45250 0.13050 0.16010 -0.52300
O 	O 	0.95250 0.36950 0.33990 -0.52700
O 	O 	0.95250 0.13050 0.66010 -0.52600
