data_crystal

_cell_length_a 10.26900
_cell_length_b 17.60150
_cell_length_c 17.60150
_cell_angle_alpha 120.00000
_cell_angle_beta  90.00000
_cell_angle_gamma 90.00000

_symmetry_space_group_name_	'P 1'
_symmetry_space_group_name_H-M	'P 1'

loop_
_symmetry_equiv_pos_as_xyz
  x,y,z

loop_
_atom_site_label
_atom_site_type_symbol
_atom_site_fract_x
_atom_site_fract_y
_atom_site_fract_z
_atom_site_charge
Zn	Zn	0.90831 0.07571 0.53818 1.21600
Zn	Zn	0.57498 0.46247 0.92429 1.21500
Zn	Zn	0.24164 0.46182 0.53753 1.21500
Zn	Zn	0.40831 0.92429 0.46182 1.21500
Zn	Zn	0.07498 0.53753 0.07571 1.21300
Zn	Zn	0.74164 0.53818 0.46247 1.21600
H 	H 	0.94650 0.67650 0.56930 -0.02500
H 	H 	0.99260 0.82020 0.61380 0.10800
H 	H 	0.68400 0.82400 0.47730 0.11200
H 	H 	0.64100 0.68200 0.44080 -0.00500
H 	H 	0.81010 0.96880 0.61060 0.07500
H 	H 	0.95920 0.94710 0.60050 0.07200
H 	H 	0.99310 0.83690 0.43130 0.03300
H 	H 	0.85950 0.84690 0.32780 0.21400
H 	H 	0.00650 0.83370 0.30010 0.23300
H 	H 	0.94280 0.92690 0.34010 0.21100
H 	H 	0.80310 0.92700 0.46790 0.11400
H 	H 	0.61317 0.89280 0.32350 -0.02600
H 	H 	0.65927 0.79360 0.17980 0.10800
H 	H 	0.35067 0.65330 0.17600 0.11100
H 	H 	0.30767 0.75880 0.31800 -0.00600
H 	H 	0.47677 0.64180 0.03120 0.07400
H 	H 	0.62587 0.65340 0.05290 0.06900
H 	H 	0.65977 0.59440 0.16310 0.02700
H 	H 	0.52617 0.48090 0.15310 0.22900
H 	H 	0.67317 0.46640 0.16630 0.26000
H 	H 	0.60947 0.41320 0.07310 0.22500
H 	H 	0.46977 0.54090 0.07300 0.11400
H 	H 	0.27983 0.43070 0.10720 -0.02500
H 	H 	0.32593 0.38620 0.20640 0.10300
H 	H 	0.01733 0.52270 0.34670 0.10000
H 	H 	0.97433 0.55920 0.24120 0.01400
H 	H 	0.14343 0.38940 0.35820 0.07000
H 	H 	0.29253 0.39950 0.34660 0.06600
H 	H 	0.32643 0.56870 0.40560 0.02800
H 	H 	0.19283 0.67220 0.51910 0.22400
H 	H 	0.33983 0.69990 0.53360 0.25600
H 	H 	0.27613 0.65990 0.58680 0.22100
H 	H 	0.13643 0.53210 0.45910 0.11200
H 	H 	0.44650 0.32350 0.43070 -0.02600
H 	H 	0.49260 0.17980 0.38620 0.10600
H 	H 	0.18400 0.17600 0.52270 0.10900
H 	H 	0.14100 0.31800 0.55920 -0.00600
H 	H 	0.31010 0.03120 0.38940 0.07300
H 	H 	0.45920 0.05290 0.39950 0.06800
H 	H 	0.49310 0.16310 0.56870 0.02700
H 	H 	0.35950 0.15310 0.67220 0.22800
H 	H 	0.50650 0.16630 0.69990 0.25900
H 	H 	0.44280 0.07310 0.65990 0.22400
H 	H 	0.30310 0.07300 0.53210 0.11400
H 	H 	0.11317 0.10720 0.67650 -0.02300
H 	H 	0.15927 0.20640 0.82020 0.10200
H 	H 	0.85067 0.34670 0.82400 0.10600
H 	H 	0.80767 0.24120 0.68200 -0.00200
H 	H 	0.97677 0.35820 0.96880 0.08100
H 	H 	0.12587 0.34660 0.94710 0.07000
H 	H 	0.15977 0.40560 0.83690 0.02700
H 	H 	0.02617 0.51910 0.84690 0.22300
H 	H 	0.17317 0.53360 0.83370 0.25600
H 	H 	0.10947 0.58680 0.92690 0.22100
H 	H 	0.96977 0.45910 0.92700 0.12100
H 	H 	0.77983 0.56930 0.89280 -0.02500
H 	H 	0.82593 0.61380 0.79360 0.10800
H 	H 	0.51733 0.47730 0.65330 0.11100
H 	H 	0.47433 0.44080 0.75880 -0.00500
H 	H 	0.64343 0.61060 0.64180 0.07400
H 	H 	0.79253 0.60050 0.65340 0.06900
H 	H 	0.82643 0.43130 0.59440 0.02900
H 	H 	0.69283 0.32780 0.48090 0.22800
H 	H 	0.83983 0.30010 0.46640 0.26000
H 	H 	0.77613 0.34010 0.41320 0.22400
H 	H 	0.63643 0.46790 0.54090 0.11400
C 	C 	0.89210 0.70670 0.55130 0.12200
C 	C 	0.92230 0.79250 0.57680 -0.21500
C 	C 	0.84580 0.83700 0.54630 0.17300
C 	C 	0.73910 0.79520 0.49660 -0.20000
C 	C 	0.71350 0.70980 0.47520 0.11500
C 	C 	0.87610 0.93040 0.57030 -0.17900
C 	C 	0.98220 0.89260 0.43210 0.06000
C 	C 	0.11210 0.94270 0.45970 0.28800
C 	C 	0.94440 0.87330 0.34190 -0.59500
C 	C 	0.55877 0.84460 0.29330 0.12100
C 	C 	0.58897 0.78430 0.20750 -0.21500
C 	C 	0.51247 0.70930 0.16300 0.17200
C 	C 	0.40577 0.70140 0.20480 -0.20000
C 	C 	0.38017 0.76540 0.29020 0.11400
C 	C 	0.54277 0.63990 0.06960 -0.17700
C 	C 	0.64887 0.53950 0.10740 0.06800
C 	C 	0.77877 0.51700 0.05730 0.29800
C 	C 	0.61107 0.46860 0.12670 -0.65300
C 	C 	0.22543 0.44870 0.15540 0.11400
C 	C 	0.25563 0.42320 0.21570 -0.20700
C 	C 	0.17913 0.45370 0.29070 0.16000
C 	C 	0.07243 0.50340 0.29860 -0.18000
C 	C 	0.04683 0.52480 0.23460 0.08200
C 	C 	0.20943 0.42970 0.36010 -0.17000
C 	C 	0.31553 0.56790 0.46050 0.06500
C 	C 	0.44543 0.54030 0.48300 0.29700
C 	C 	0.27773 0.65810 0.53140 -0.64400
C 	C 	0.39210 0.29330 0.44870 0.12000
C 	C 	0.42230 0.20750 0.42320 -0.21400
C 	C 	0.34580 0.16300 0.45370 0.17000
C 	C 	0.23910 0.20480 0.50340 -0.19900
C 	C 	0.21350 0.29020 0.52480 0.11300
C 	C 	0.37610 0.06960 0.42970 -0.17600
C 	C 	0.48220 0.10740 0.56790 0.06800
C 	C 	0.61210 0.05730 0.54030 0.29600
C 	C 	0.44440 0.12670 0.65810 -0.65100
C 	C 	0.05877 0.15540 0.70670 0.10500
C 	C 	0.08897 0.21570 0.79250 -0.20400
C 	C 	0.01247 0.29070 0.83700 0.15700
C 	C 	0.90577 0.29860 0.79520 -0.18100
C 	C 	0.88017 0.23460 0.70980 0.10700
C 	C 	0.04277 0.36010 0.93040 -0.18400
C 	C 	0.14887 0.46050 0.89260 0.06500
C 	C 	0.27877 0.48300 0.94270 0.29800
C 	C 	0.11107 0.53140 0.87330 -0.64500
C 	C 	0.72543 0.55130 0.84460 0.12100
C 	C 	0.75563 0.57680 0.78430 -0.21400
C 	C 	0.67913 0.54630 0.70930 0.17200
C 	C 	0.57243 0.49660 0.70140 -0.19900
C 	C 	0.54683 0.47520 0.76540 0.11400
C 	C 	0.70943 0.57030 0.63990 -0.17700
C 	C 	0.81553 0.43210 0.53950 0.06400
C 	C 	0.94543 0.45970 0.51700 0.30900
C 	C 	0.77773 0.34190 0.46860 -0.64900
N 	N 	0.88140 0.94330 0.49570 -0.26600
N 	N 	0.78910 0.66480 0.50210 -0.27300
N 	N 	0.54807 0.55240 0.05670 -0.26800
N 	N 	0.45577 0.83730 0.33520 -0.27300
N 	N 	0.21473 0.50430 0.44760 -0.26900
N 	N 	0.12243 0.49790 0.16270 -0.26900
N 	N 	0.38140 0.05670 0.50430 -0.26900
N 	N 	0.28910 0.33520 0.49790 -0.27300
N 	N 	0.04807 0.44760 0.94330 -0.27300
N 	N 	0.95577 0.16270 0.66480 -0.26600
N 	N 	0.71473 0.49570 0.55240 -0.26800
N 	N 	0.62243 0.50210 0.83730 -0.27300
Cl	Cl	0.91200 0.13287 0.45033 -0.54600
Cl	Cl	0.57867 0.31746 0.86713 -0.55100
Cl	Cl	0.24533 0.54967 0.68254 -0.55300
Cl	Cl	0.41200 0.86713 0.54967 -0.55300
Cl	Cl	0.07867 0.68254 0.13287 -0.55700
Cl	Cl	0.74533 0.45033 0.31746 -0.54700
O 	O 	0.21210 0.89850 0.42590 -0.41200
O 	O 	0.10640 0.02400 0.51220 -0.41900
O 	O 	0.87877 0.52740 0.10150 -0.40700
O 	O 	0.77307 0.48820 0.97600 -0.41800
O 	O 	0.54543 0.57410 0.47260 -0.41200
O 	O 	0.43973 0.48780 0.51180 -0.41800
O 	O 	0.71210 0.10150 0.57410 -0.41100
O 	O 	0.60640 0.97600 0.48780 -0.41700
O 	O 	0.37877 0.47260 0.89850 -0.41200
O 	O 	0.27307 0.51180 0.02400 -0.41900
O 	O 	0.04543 0.42590 0.52740 -0.42200
O 	O 	0.93973 0.51220 0.48820 -0.41700
