data_crystal

_cell_length_a 10.26520
_cell_length_b 17.52850
_cell_length_c 17.52850
_cell_angle_alpha 120.00000
_cell_angle_beta  90.00000
_cell_angle_gamma 90.00000

_symmetry_space_group_name_	'P 1'
_symmetry_space_group_name_H-M	'P 1'

loop_
_symmetry_equiv_pos_as_xyz
  x,y,z

loop_
_atom_site_label
_atom_site_type_symbol
_atom_site_fract_x
_atom_site_fract_y
_atom_site_fract_z
_atom_site_charge
Zn	Zn	0.00685 0.46439 0.92459 1.19900
Zn	Zn	0.67352 0.46020 0.53561 1.21800
Zn	Zn	0.34018 0.07541 0.53980 1.21700
Zn	Zn	0.50685 0.53561 0.07541 1.21700
Zn	Zn	0.17352 0.53980 0.46439 1.21200
Zn	Zn	0.84018 0.92459 0.46020 1.22200
H 	H 	0.97490 0.42690 0.32190 0.08300
H 	H 	0.93050 0.38360 0.17870 0.03000
H 	H 	0.22640 0.53500 0.18190 0.07600
H 	H 	0.27220 0.56700 0.32220 0.01400
H 	H 	0.11090 0.39090 0.03050 0.07200
H 	H 	0.96140 0.39910 0.05130 0.09600
H 	H 	0.92520 0.56970 0.16530 0.05500
H 	H 	0.04270 0.68230 0.16220 0.14300
H 	H 	0.89450 0.69940 0.15500 0.20200
H 	H 	0.98260 0.65820 0.07070 0.17200
H 	H 	0.11420 0.53570 0.07290 0.11400
H 	H 	0.64157 0.89500 0.57310 -0.02400
H 	H 	0.59717 0.79510 0.61640 0.10600
H 	H 	0.89307 0.64690 0.46500 0.11400
H 	H 	0.93887 0.75520 0.43300 0.00900
H 	H 	0.77757 0.63960 0.60910 0.08100
H 	H 	0.62807 0.65220 0.60090 0.06900
H 	H 	0.59187 0.59560 0.43030 0.03200
H 	H 	0.70937 0.47990 0.31770 0.22900
H 	H 	0.56117 0.45560 0.30060 0.25300
H 	H 	0.64927 0.41250 0.34180 0.21800
H 	H 	0.78087 0.53720 0.46430 0.11700
H 	H 	0.30823 0.67810 0.10500 -0.02600
H 	H 	0.26383 0.82130 0.20490 0.10000
H 	H 	0.55973 0.81810 0.35310 0.10400
H 	H 	0.60553 0.67780 0.24480 -0.00300
H 	H 	0.44423 0.96950 0.36040 0.07400
H 	H 	0.29473 0.94870 0.34780 0.06500
H 	H 	0.25853 0.83470 0.40440 0.03200
H 	H 	0.37603 0.83780 0.52010 0.21900
H 	H 	0.22783 0.84500 0.54440 0.24100
H 	H 	0.31593 0.92930 0.58750 0.20800
H 	H 	0.44753 0.92710 0.46280 0.11500
H 	H 	0.47490 0.57310 0.67810 -0.02400
H 	H 	0.43050 0.61640 0.82130 0.10200
H 	H 	0.72640 0.46500 0.81810 0.10600
H 	H 	0.77220 0.43300 0.67780 0.00200
H 	H 	0.61090 0.60910 0.96950 0.07500
H 	H 	0.46140 0.60090 0.94870 0.06500
H 	H 	0.42520 0.43030 0.83470 0.03100
H 	H 	0.54270 0.31770 0.83780 0.22500
H 	H 	0.39450 0.30060 0.84500 0.24900
H 	H 	0.48260 0.34180 0.92930 0.21400
H 	H 	0.61420 0.46430 0.92710 0.11600
H 	H 	0.14157 0.10500 0.42690 -0.03200
H 	H 	0.09717 0.20490 0.38360 0.09300
H 	H 	0.39307 0.35310 0.53500 0.10300
H 	H 	0.43887 0.24480 0.56700 -0.00400
H 	H 	0.27757 0.36040 0.39090 0.07200
H 	H 	0.12807 0.34780 0.39910 0.05600
H 	H 	0.09187 0.40440 0.56970 0.04300
H 	H 	0.20937 0.52010 0.68230 0.19700
H 	H 	0.06117 0.54440 0.69940 0.20900
H 	H 	0.14927 0.58750 0.65820 0.18300
H 	H 	0.28087 0.46280 0.53570 0.11500
H 	H 	0.80823 0.32190 0.89500 -0.02900
H 	H 	0.76383 0.17870 0.79510 0.11800
H 	H 	0.05973 0.18190 0.64690 0.11800
H 	H 	0.10553 0.32220 0.75520 -0.00600
H 	H 	0.94423 0.03050 0.63960 0.09800
H 	H 	0.79473 0.05130 0.65220 0.07900
H 	H 	0.75853 0.16530 0.59560 0.03200
H 	H 	0.87603 0.16220 0.47990 0.24500
H 	H 	0.72783 0.15500 0.45560 0.26200
H 	H 	0.81593 0.07070 0.41250 0.23000
H 	H 	0.94753 0.07290 0.53720 0.13100
C 	C 	0.02740 0.44740 0.29270 -0.11500
C 	C 	0.99910 0.42220 0.20730 0.03100
C 	C 	0.07340 0.45430 0.16300 0.03400
C 	C 	0.17580 0.51090 0.20870 -0.10600
C 	C 	0.20140 0.53090 0.29320 0.05000
C 	C 	0.04380 0.43040 0.06880 -0.18800
C 	C 	0.93410 0.56850 0.10900 0.02000
C 	C 	0.80510 0.53850 0.05760 0.31500
C 	C 	0.96640 0.66070 0.12580 -0.44500
C 	C 	0.69407 0.84530 0.55260 0.12100
C 	C 	0.66577 0.78510 0.57780 -0.21100
C 	C 	0.74007 0.70870 0.54570 0.16900
C 	C 	0.84247 0.69780 0.48910 -0.18600
C 	C 	0.86807 0.76230 0.46910 0.11300
C 	C 	0.71047 0.63840 0.56960 -0.18000
C 	C 	0.60077 0.54050 0.43150 0.05200
C 	C 	0.47177 0.51910 0.46150 0.30300
C 	C 	0.63307 0.46510 0.33930 -0.63400
C 	C 	0.36073 0.70730 0.15470 0.11800
C 	C 	0.33243 0.79270 0.21490 -0.20900
C 	C 	0.40673 0.83700 0.29130 0.16100
C 	C 	0.50913 0.79130 0.30220 -0.18500
C 	C 	0.53473 0.70680 0.23770 0.10700
C 	C 	0.37713 0.93120 0.36160 -0.17500
C 	C 	0.26743 0.89100 0.45950 0.04100
C 	C 	0.13843 0.94240 0.48090 0.31100
C 	C 	0.29973 0.87420 0.53490 -0.61300
C 	C 	0.52740 0.55260 0.70730 0.11800
C 	C 	0.49910 0.57780 0.79270 -0.20800
C 	C 	0.57340 0.54570 0.83700 0.16200
C 	C 	0.67580 0.48910 0.79130 -0.18400
C 	C 	0.70140 0.46910 0.70680 0.10800
C 	C 	0.54380 0.56960 0.93120 -0.17600
C 	C 	0.43410 0.43150 0.89100 0.05000
C 	C 	0.30510 0.46150 0.94240 0.30100
C 	C 	0.46640 0.33930 0.87420 -0.62600
C 	C 	0.19407 0.15470 0.44740 0.11300
C 	C 	0.16577 0.21490 0.42220 -0.21000
C 	C 	0.24007 0.29130 0.45430 0.15700
C 	C 	0.34247 0.30220 0.51090 -0.18400
C 	C 	0.36807 0.23770 0.53090 0.10500
C 	C 	0.21047 0.36160 0.43040 -0.17300
C 	C 	0.10077 0.45950 0.56850 -0.01800
C 	C 	0.97177 0.48090 0.53850 0.35800
C 	C 	0.13307 0.53490 0.66070 -0.54600
C 	C 	0.86073 0.29270 0.84530 0.14500
C 	C 	0.83243 0.20730 0.78510 -0.24300
C 	C 	0.90673 0.16300 0.70870 0.23700
C 	C 	0.00913 0.20870 0.69780 -0.26300
C 	C 	0.03473 0.29320 0.76230 0.08800
C 	C 	0.87713 0.06880 0.63840 -0.21100
C 	C 	0.76743 0.10900 0.54050 0.06200
C 	C 	0.63843 0.05760 0.51910 0.29900
C 	C 	0.79973 0.12580 0.46510 -0.65700
N 	N 	0.03650 0.50690 0.05660 -0.28000
N 	N 	0.12760 0.50030 0.33640 -0.22600
N 	N 	0.70317 0.54970 0.49310 -0.26900
N 	N 	0.79427 0.83610 0.49970 -0.26600
N 	N 	0.36983 0.94340 0.45030 -0.26800
N 	N 	0.46093 0.66360 0.16390 -0.26900
N 	N 	0.53650 0.49310 0.94340 -0.27000
N 	N 	0.62760 0.49970 0.66360 -0.26800
N 	N 	0.20317 0.45030 0.50690 -0.26500
N 	N 	0.29427 0.16390 0.50030 -0.27000
N 	N 	0.86983 0.05660 0.54970 -0.26600
N 	N 	0.96093 0.33640 0.83610 -0.24600
Cl	Cl	0.99700 0.55565 0.87054 -0.50400
Cl	Cl	0.66367 0.31489 0.44435 -0.54200
Cl	Cl	0.33033 0.12946 0.68511 -0.55500
Cl	Cl	0.49700 0.44435 0.12946 -0.54600
Cl	Cl	0.16367 0.68511 0.55565 -0.56800
Cl	Cl	0.83033 0.87054 0.31489 -0.52800
O 	O 	0.70400 0.56990 0.10390 -0.41200
O 	O 	0.80940 0.48740 0.97710 -0.41700
O 	O 	0.37067 0.53400 0.43010 -0.41200
O 	O 	0.47607 0.48970 0.51260 -0.42300
O 	O 	0.03733 0.89610 0.46600 -0.43800
O 	O 	0.14273 0.02290 0.51030 -0.44100
O 	O 	0.20400 0.43010 0.89610 -0.42000
O 	O 	0.30940 0.51260 0.02290 -0.42200
O 	O 	0.87067 0.46600 0.56990 -0.41300
O 	O 	0.97607 0.51030 0.48740 -0.41800
O 	O 	0.53733 0.10390 0.53400 -0.40900
O 	O 	0.64273 0.97710 0.48970 -0.42100
