data_crystal

_cell_length_a 10.14860
_cell_length_b 17.58060
_cell_length_c 17.58060
_cell_angle_alpha 120.00000
_cell_angle_beta  90.00000
_cell_angle_gamma 90.00000

_symmetry_space_group_name_	'P 1'
_symmetry_space_group_name_H-M	'P 1'

loop_
_symmetry_equiv_pos_as_xyz
  x,y,z

loop_
_atom_site_label
_atom_site_type_symbol
_atom_site_fract_x
_atom_site_fract_y
_atom_site_fract_z
_atom_site_charge
Zn	Zn	0.96018 0.46685 0.92633 1.17400
Zn	Zn	0.62685 0.45948 0.53315 1.17400
Zn	Zn	0.29351 0.07367 0.54052 1.17500
Zn	Zn	0.46018 0.53315 0.07367 1.17400
Zn	Zn	0.12685 0.54052 0.46685 1.17500
Zn	Zn	0.79351 0.92633 0.45948 1.17500
H 	H 	0.01670 0.89190 0.32650 -0.03500
H 	H 	0.67300 0.78000 0.30450 -0.02100
H 	H 	0.06670 0.79660 0.18620 0.07400
H 	H 	0.72280 0.67580 0.16070 0.07000
H 	H 	0.95200 0.53740 0.20610 0.12800
H 	H 	0.06060 0.46820 0.15080 0.12000
H 	H 	0.92090 0.46230 0.11020 0.11100
H 	H 	0.87090 0.65550 0.02100 0.05600
H 	H 	0.02110 0.66690 0.04630 0.04900
H 	H 	0.05470 0.61970 0.16110 0.05100
H 	H 	0.68337 0.43460 0.10810 -0.03400
H 	H 	0.33967 0.52450 0.22000 -0.02200
H 	H 	0.73337 0.38960 0.20340 0.07900
H 	H 	0.38947 0.48490 0.32420 0.07100
H 	H 	0.61867 0.66870 0.46260 0.13300
H 	H 	0.72727 0.68260 0.53180 0.12600
H 	H 	0.58757 0.64790 0.53770 0.11600
H 	H 	0.53757 0.36550 0.34450 0.05800
H 	H 	0.68777 0.37940 0.33310 0.05400
H 	H 	0.72137 0.54140 0.38030 0.05000
H 	H 	0.35003 0.67350 0.56540 -0.03400
H 	H 	0.00633 0.69550 0.47550 -0.02200
H 	H 	0.40003 0.81380 0.61040 0.07800
H 	H 	0.05613 0.83930 0.51510 0.07100
H 	H 	0.28533 0.79390 0.33130 0.13300
H 	H 	0.39393 0.84920 0.31740 0.12600
H 	H 	0.25423 0.88980 0.35210 0.11600
H 	H 	0.20423 0.97900 0.63450 0.05800
H 	H 	0.35443 0.95370 0.62060 0.05400
H 	H 	0.38803 0.83890 0.45860 0.05000
H 	H 	0.51670 0.10810 0.67350 -0.03400
H 	H 	0.17300 0.22000 0.69550 -0.02100
H 	H 	0.56670 0.20340 0.81380 0.07800
H 	H 	0.22280 0.32420 0.83930 0.07200
H 	H 	0.45200 0.46260 0.79390 0.13300
H 	H 	0.56060 0.53180 0.84920 0.12600
H 	H 	0.42090 0.53770 0.88980 0.11600
H 	H 	0.37090 0.34450 0.97900 0.05900
H 	H 	0.52110 0.33310 0.95370 0.05400
H 	H 	0.55470 0.38030 0.83890 0.05000
H 	H 	0.18337 0.56540 0.89190 -0.03400
H 	H 	0.83967 0.47550 0.78000 -0.02100
H 	H 	0.23337 0.61040 0.79660 0.07900
H 	H 	0.88947 0.51510 0.67580 0.07200
H 	H 	0.11867 0.33130 0.53740 0.13400
H 	H 	0.22727 0.31740 0.46820 0.12700
H 	H 	0.08757 0.35210 0.46230 0.11700
H 	H 	0.03757 0.63450 0.65550 0.06000
H 	H 	0.18777 0.62060 0.66690 0.05500
H 	H 	0.22137 0.45860 0.61970 0.05000
H 	H 	0.85003 0.32650 0.43460 -0.03400
H 	H 	0.50633 0.30450 0.52450 -0.02200
H 	H 	0.90003 0.18620 0.38960 0.07800
H 	H 	0.55613 0.16070 0.48490 0.07100
H 	H 	0.78533 0.20610 0.66870 0.13300
H 	H 	0.89393 0.15080 0.68260 0.12500
H 	H 	0.75423 0.11020 0.64790 0.11600
H 	H 	0.70423 0.02100 0.36550 0.05900
H 	H 	0.85443 0.04630 0.37940 0.05400
H 	H 	0.88803 0.16110 0.54140 0.04900
C 	C 	0.95630 0.84810 0.29280 0.09400
C 	C 	0.75400 0.78250 0.28120 0.06800
C 	C 	0.98650 0.79130 0.20870 -0.19800
C 	C 	0.90030 0.72490 0.15480 0.13600
C 	C 	0.78280 0.72040 0.19340 -0.17600
C 	C 	0.98770 0.50160 0.14820 -0.37900
C 	C 	0.15980 0.52090 0.05860 0.30700
C 	C 	0.93490 0.65500 0.06180 -0.16700
C 	C 	0.03530 0.56090 0.11220 -0.05900
C 	C 	0.62297 0.44470 0.15190 0.09600
C 	C 	0.42067 0.49870 0.21750 0.07000
C 	C 	0.65317 0.41740 0.20870 -0.20600
C 	C 	0.56697 0.42990 0.27510 0.14100
C 	C 	0.44947 0.47300 0.27960 -0.17900
C 	C 	0.65437 0.64660 0.49840 -0.39600
C 	C 	0.82647 0.53770 0.47910 0.30900
C 	C 	0.60157 0.40680 0.34500 -0.17600
C 	C 	0.70197 0.55130 0.43910 -0.05200
C 	C 	0.28963 0.70720 0.55530 0.09600
C 	C 	0.08733 0.71880 0.50130 0.07000
C 	C 	0.31983 0.79130 0.58260 -0.20600
C 	C 	0.23363 0.84520 0.57010 0.14100
C 	C 	0.11613 0.80660 0.52700 -0.17900
C 	C 	0.32103 0.85180 0.35340 -0.39600
C 	C 	0.49313 0.94140 0.46230 0.30800
C 	C 	0.26823 0.93820 0.59320 -0.17600
C 	C 	0.36863 0.88780 0.44870 -0.05200
C 	C 	0.45630 0.15190 0.70720 0.09600
C 	C 	0.25400 0.21750 0.71880 0.07000
C 	C 	0.48650 0.20870 0.79130 -0.20600
C 	C 	0.40030 0.27510 0.84520 0.14100
C 	C 	0.28280 0.27960 0.80660 -0.17900
C 	C 	0.48770 0.49840 0.85180 -0.39700
C 	C 	0.65980 0.47910 0.94140 0.30700
C 	C 	0.43490 0.34500 0.93820 -0.17700
C 	C 	0.53530 0.43910 0.88780 -0.05100
C 	C 	0.12297 0.55530 0.84810 0.09800
C 	C 	0.92067 0.50130 0.78250 0.06600
C 	C 	0.15317 0.58260 0.79130 -0.20800
C 	C 	0.06697 0.57010 0.72490 0.14600
C 	C 	0.94947 0.52700 0.72040 -0.18400
C 	C 	0.15437 0.35340 0.50160 -0.39800
C 	C 	0.32647 0.46230 0.52090 0.30900
C 	C 	0.10157 0.59320 0.65500 -0.17900
C 	C 	0.20197 0.44870 0.56090 -0.05100
C 	C 	0.78963 0.29280 0.44470 0.09600
C 	C 	0.58733 0.28120 0.49870 0.07000
C 	C 	0.81983 0.20870 0.41740 -0.20600
C 	C 	0.73363 0.15480 0.42990 0.14100
C 	C 	0.61613 0.19340 0.47300 -0.17900
C 	C 	0.82103 0.14820 0.64660 -0.39600
C 	C 	0.99313 0.05860 0.53770 0.30400
C 	C 	0.76823 0.06180 0.40680 -0.17600
C 	C 	0.86863 0.11220 0.55130 -0.05000
N 	N 	0.93500 0.56680 0.05580 -0.20200
N 	N 	0.84000 0.84480 0.33190 -0.28100
N 	N 	0.60167 0.48900 0.43320 -0.20300
N 	N 	0.50667 0.48710 0.15520 -0.28200
N 	N 	0.26833 0.94420 0.51100 -0.20300
N 	N 	0.17333 0.66810 0.51290 -0.28200
N 	N 	0.43500 0.43320 0.94420 -0.20300
N 	N 	0.34000 0.15520 0.66810 -0.28200
N 	N 	0.10167 0.51100 0.56680 -0.20300
N 	N 	0.00667 0.51290 0.84480 -0.27900
N 	N 	0.76833 0.05580 0.48900 -0.20300
N 	N 	0.67333 0.33190 0.48710 -0.28200
O 	O 	0.15460 0.47990 0.97670 -0.46200
O 	O 	0.26360 0.53180 0.10430 -0.46100
O 	O 	0.82127 0.49680 0.52010 -0.46700
O 	O 	0.93027 0.57250 0.46820 -0.46100
O 	O 	0.48793 0.02330 0.50320 -0.46500
O 	O 	0.59693 0.89570 0.42750 -0.46100
O 	O 	0.65460 0.52010 0.02330 -0.46500
O 	O 	0.76360 0.46820 0.89570 -0.46200
O 	O 	0.32127 0.50320 0.47990 -0.46600
O 	O 	0.43027 0.42750 0.53180 -0.46100
O 	O 	0.98793 0.97670 0.49680 -0.46500
O 	O 	0.09693 0.10430 0.57250 -0.45700
