data_crystal

_cell_length_a 10.17160
_cell_length_b 17.74400
_cell_length_c 17.74400
_cell_angle_alpha 120.00000
_cell_angle_beta  90.00000
_cell_angle_gamma 90.00000

_symmetry_space_group_name_	'P 1'
_symmetry_space_group_name_H-M	'P 1'

loop_
_symmetry_equiv_pos_as_xyz
  x,y,z

loop_
_atom_site_label
_atom_site_type_symbol
_atom_site_fract_x
_atom_site_fract_y
_atom_site_fract_z
_atom_site_charge
Zn	Zn	0.86811 0.53163 0.45610 1.20600
Zn	Zn	0.53478 0.92447 0.46837 1.20700
Zn	Zn	0.20144 0.54390 0.07553 1.20800
Zn	Zn	0.36811 0.46837 0.54390 1.20700
Zn	Zn	0.03478 0.07553 0.53163 1.20800
Zn	Zn	0.70144 0.45610 0.92447 1.20600
H 	H 	0.96940 0.44950 0.52230 0.11100
H 	H 	0.94410 0.35070 0.37900 0.06800
H 	H 	0.79560 0.34370 0.39830 0.07100
H 	H 	0.77140 0.40440 0.56440 0.03300
H 	H 	0.81370 0.11050 0.43980 -0.02800
H 	H 	0.09200 0.33320 0.49580 0.10700
H 	H 	0.75300 0.21030 0.39900 0.10700
H 	H 	0.14420 0.23010 0.53490 -0.01100
H 	H 	0.92190 0.50560 0.66660 0.20800
H 	H 	0.77730 0.53530 0.69790 0.23600
H 	H 	0.85800 0.58010 0.65580 0.20200
H 	H 	0.63607 0.07280 0.55050 0.11400
H 	H 	0.61077 0.02830 0.64930 0.07400
H 	H 	0.46227 0.05460 0.65630 0.07400
H 	H 	0.43807 0.16000 0.59560 0.03300
H 	H 	0.48037 0.32930 0.88950 -0.02900
H 	H 	0.75867 0.16260 0.66680 0.11000
H 	H 	0.41967 0.18870 0.78970 0.11000
H 	H 	0.81087 0.30480 0.76990 -0.01400
H 	H 	0.58857 0.16100 0.49440 0.21400
H 	H 	0.44397 0.16260 0.46470 0.24000
H 	H 	0.52467 0.07570 0.41990 0.20700
H 	H 	0.30273 0.47770 0.92720 0.11400
H 	H 	0.27743 0.62100 0.97170 0.07500
H 	H 	0.12893 0.60170 0.94540 0.07700
H 	H 	0.10473 0.43560 0.84000 0.02900
H 	H 	0.14703 0.56020 0.67070 -0.02700
H 	H 	0.42533 0.50420 0.83740 0.11100
H 	H 	0.08633 0.60100 0.81130 0.11400
H 	H 	0.47753 0.46510 0.69520 -0.01200
H 	H 	0.25523 0.33340 0.83900 0.22000
H 	H 	0.11063 0.30210 0.83740 0.24800
H 	H 	0.19133 0.34420 0.92430 0.21400
H 	H 	0.46940 0.55050 0.47770 0.11400
H 	H 	0.44410 0.64930 0.62100 0.07400
H 	H 	0.29560 0.65630 0.60170 0.07600
H 	H 	0.27140 0.59560 0.43560 0.03400
H 	H 	0.31370 0.88950 0.56020 -0.02800
H 	H 	0.59200 0.66680 0.50420 0.11100
H 	H 	0.25300 0.78970 0.60100 0.11300
H 	H 	0.64420 0.76990 0.46510 -0.01200
H 	H 	0.42190 0.49440 0.33340 0.21500
H 	H 	0.27730 0.46470 0.30210 0.24100
H 	H 	0.35800 0.41990 0.34420 0.20700
H 	H 	0.13607 0.92720 0.44950 0.11200
H 	H 	0.11077 0.97170 0.35070 0.07500
H 	H 	0.96227 0.94540 0.34370 0.06500
H 	H 	0.93807 0.84000 0.40440 0.04600
H 	H 	0.98037 0.67070 0.11050 -0.06000
H 	H 	0.25867 0.83740 0.33320 0.12000
H 	H 	0.91967 0.81130 0.21030 0.13100
H 	H 	0.31087 0.69520 0.23010 -0.01700
H 	H 	0.08857 0.83900 0.50560 0.18300
H 	H 	0.94397 0.83740 0.53530 0.19800
H 	H 	0.02467 0.92430 0.58010 0.17700
H 	H 	0.80273 0.52230 0.07280 0.11200
H 	H 	0.77743 0.37900 0.02830 0.07200
H 	H 	0.62893 0.39830 0.05460 0.07300
H 	H 	0.60473 0.56440 0.16000 0.03300
H 	H 	0.64703 0.43980 0.32930 -0.02900
H 	H 	0.92533 0.49580 0.16260 0.10700
H 	H 	0.58633 0.39900 0.18870 0.11000
H 	H 	0.97753 0.53490 0.30480 -0.01500
H 	H 	0.75523 0.66660 0.16100 0.21200
H 	H 	0.61063 0.69790 0.16260 0.23800
H 	H 	0.69133 0.65580 0.07570 0.20500
C 	C 	0.91740 0.28500 0.44500 0.16100
C 	C 	0.66410 0.49230 0.54460 0.29400
C 	C 	0.88340 0.35450 0.42300 -0.17800
C 	C 	0.79040 0.45870 0.56480 0.03700
C 	C 	0.87010 0.15640 0.45190 0.11600
C 	C 	0.03280 0.28880 0.48430 -0.19200
C 	C 	0.83280 0.21610 0.42700 -0.21300
C 	C 	0.06430 0.22640 0.50770 0.11800
C 	C 	0.84170 0.52620 0.65460 -0.59300
C 	C 	0.58407 0.16000 0.71500 0.17900
C 	C 	0.33077 0.05230 0.50770 0.29200
C 	C 	0.55007 0.06850 0.64550 -0.18700
C 	C 	0.45707 0.10610 0.54130 0.04100
C 	C 	0.53677 0.29550 0.84360 0.12200
C 	C 	0.69947 0.19550 0.71120 -0.21200
C 	C 	0.49947 0.21090 0.78390 -0.22100
C 	C 	0.73097 0.28130 0.77360 0.11600
C 	C 	0.50837 0.12840 0.47380 -0.60200
C 	C 	0.25073 0.55500 0.84000 0.18000
C 	C 	0.99743 0.45540 0.94770 0.26700
C 	C 	0.21673 0.57700 0.93150 -0.18800
C 	C 	0.12373 0.43520 0.89390 0.06000
C 	C 	0.20343 0.54810 0.70450 0.12400
C 	C 	0.36613 0.51570 0.80450 -0.21200
C 	C 	0.16613 0.57300 0.78910 -0.22100
C 	C 	0.39763 0.49230 0.71870 0.11600
C 	C 	0.17503 0.34540 0.87160 -0.62200
C 	C 	0.41740 0.71500 0.55500 0.18000
C 	C 	0.16410 0.50770 0.45540 0.29200
C 	C 	0.38340 0.64550 0.57700 -0.18800
C 	C 	0.29040 0.54130 0.43520 0.04200
C 	C 	0.37010 0.84360 0.54810 0.12400
C 	C 	0.53280 0.71120 0.51570 -0.21200
C 	C 	0.33280 0.78390 0.57300 -0.22100
C 	C 	0.56430 0.77360 0.49230 0.11600
C 	C 	0.34170 0.47380 0.34540 -0.60400
C 	C 	0.08407 0.84000 0.28500 0.21600
C 	C 	0.83077 0.94770 0.49230 0.30500
C 	C 	0.05007 0.93150 0.35450 -0.18300
C 	C 	0.95707 0.89390 0.45870 -0.01500
C 	C 	0.03677 0.70450 0.15640 0.18600
C 	C 	0.19947 0.80450 0.28880 -0.23500
C 	C 	0.99947 0.78910 0.21610 -0.28700
C 	C 	0.23097 0.71870 0.22640 0.13300
C 	C 	0.00837 0.87160 0.52620 -0.48800
C 	C 	0.75073 0.44500 0.16000 0.17700
C 	C 	0.49743 0.54460 0.05230 0.29200
C 	C 	0.71673 0.42300 0.06850 -0.18600
C 	C 	0.62373 0.56480 0.10610 0.03900
C 	C 	0.70343 0.45190 0.29550 0.12200
C 	C 	0.86613 0.48430 0.19550 -0.21100
C 	C 	0.66613 0.42700 0.21090 -0.22000
C 	C 	0.89763 0.50770 0.28130 0.11400
C 	C 	0.67503 0.65460 0.12840 -0.59900
Br	Br	0.89847 0.68141 0.55141 -0.49700
Br	Br	0.56514 0.87000 0.31859 -0.49400
Br	Br	0.23180 0.44859 0.13000 -0.48900
Br	Br	0.39847 0.31859 0.44859 -0.49200
Br	Br	0.06514 0.13000 0.68141 -0.48600
Br	Br	0.73180 0.55141 0.87000 -0.49500
N 	N 	0.88840 0.44190 0.49770 -0.26600
N 	N 	0.98200 0.16200 0.49190 -0.28100
N 	N 	0.55507 0.05580 0.55810 -0.26500
N 	N 	0.64867 0.32990 0.83800 -0.27700
N 	N 	0.22173 0.50230 0.94420 -0.26700
N 	N 	0.31533 0.50810 0.67010 -0.27700
N 	N 	0.38840 0.55810 0.50230 -0.26500
N 	N 	0.48200 0.83800 0.50810 -0.27700
N 	N 	0.05507 0.94420 0.44190 -0.25200
N 	N 	0.14867 0.67010 0.16200 -0.29000
N 	N 	0.72173 0.49770 0.05580 -0.26500
N 	N 	0.81533 0.49190 0.32990 -0.27800
O 	O 	0.66820 0.51690 0.48957 -0.42700
O 	O 	0.56430 0.49450 0.58780 -0.41000
O 	O 	0.33487 0.97267 0.48310 -0.42600
O 	O 	0.23097 0.09330 0.50550 -0.40900
O 	O 	0.00153 0.51043 0.02733 -0.41000
O 	O 	0.89763 0.41220 0.90670 -0.40600
O 	O 	0.16820 0.48310 0.51043 -0.42300
O 	O 	0.06430 0.50550 0.41220 -0.40300
O 	O 	0.83487 0.02733 0.51690 -0.43100
O 	O 	0.73097 0.90670 0.49450 -0.41400
O 	O 	0.50153 0.48957 0.97267 -0.42500
O 	O 	0.39763 0.58780 0.09330 -0.40900
