data_crystal

_cell_length_a 10.34330
_cell_length_b 17.73360
_cell_length_c 17.73360
_cell_angle_alpha 120.00000
_cell_angle_beta  90.00000
_cell_angle_gamma 90.00000

_symmetry_space_group_name_	'P 1'
_symmetry_space_group_name_H-M	'P 1'

loop_
_symmetry_equiv_pos_as_xyz
  x,y,z

loop_
_atom_site_label
_atom_site_type_symbol
_atom_site_fract_x
_atom_site_fract_y
_atom_site_fract_z
_atom_site_charge
Zn	Zn	0.84420 0.45553 0.92874 1.16900
Zn	Zn	0.51087 0.47321 0.54447 1.17100
Zn	Zn	0.17753 0.07126 0.52679 1.17200
Zn	Zn	0.34420 0.54447 0.07126 1.17100
Zn	Zn	0.01087 0.52679 0.45553 1.17600
Zn	Zn	0.67753 0.92874 0.47321 1.17000
H 	H 	0.30350 0.57140 0.67660 -0.04000
H 	H 	0.63180 0.47600 0.69660 -0.02200
H 	H 	0.25160 0.61800 0.81930 0.06500
H 	H 	0.23430 0.47330 0.84580 0.17500
H 	H 	0.21080 0.32630 0.80610 -0.26400
H 	H 	0.44620 0.62740 0.97990 0.05200
H 	H 	0.29880 0.62360 0.95710 0.05600
H 	H 	0.59340 0.52120 0.84110 0.05200
H 	H 	0.40080 0.35990 0.93120 0.39400
H 	H 	0.36950 0.26490 0.85690 0.41200
H 	H 	0.26320 0.32030 0.92540 0.40800
H 	H 	0.35270 0.35090 0.72150 0.42000
H 	H 	0.41000 0.27600 0.73400 0.41500
H 	H 	0.46560 0.37070 0.78790 0.43300
H 	H 	0.97017 0.10520 0.42860 -0.07700
H 	H 	0.29847 0.22060 0.52400 -0.02400
H 	H 	0.91827 0.20130 0.38200 0.08200
H 	H 	0.90097 0.37250 0.52670 0.15200
H 	H 	0.87747 0.47980 0.67370 -0.21300
H 	H 	0.11287 0.35250 0.37260 0.05000
H 	H 	0.96547 0.33350 0.37640 0.04000
H 	H 	0.26007 0.31990 0.47880 0.06000
H 	H 	0.06747 0.57130 0.64010 0.31500
H 	H 	0.03617 0.59200 0.73510 0.33300
H 	H 	0.92987 0.60510 0.67970 0.31200
H 	H 	0.01937 0.37060 0.64910 0.36300
H 	H 	0.07667 0.45800 0.72400 0.35600
H 	H 	0.13227 0.41720 0.62930 0.37400
H 	H 	0.63683 0.32340 0.89480 -0.04400
H 	H 	0.96513 0.30340 0.77940 -0.02400
H 	H 	0.58493 0.18070 0.79870 0.05900
H 	H 	0.56763 0.15420 0.62750 0.17100
H 	H 	0.54413 0.19390 0.52020 -0.26400
H 	H 	0.77953 0.02010 0.64750 0.05000
H 	H 	0.63213 0.04290 0.66650 0.05400
H 	H 	0.92673 0.15890 0.68010 0.05000
H 	H 	0.73413 0.06880 0.42870 0.39000
H 	H 	0.70283 0.14310 0.40800 0.40700
H 	H 	0.59653 0.07460 0.39490 0.40200
H 	H 	0.68603 0.27850 0.62940 0.41500
H 	H 	0.74333 0.26600 0.54200 0.41100
H 	H 	0.79893 0.21210 0.58280 0.42900
H 	H 	0.80350 0.42860 0.32340 -0.04300
H 	H 	0.13180 0.52400 0.30340 -0.02000
H 	H 	0.75160 0.38200 0.18070 0.05600
H 	H 	0.73430 0.52670 0.15420 0.16800
H 	H 	0.71080 0.67370 0.19390 -0.25600
H 	H 	0.94620 0.37260 0.02010 0.04400
H 	H 	0.79880 0.37640 0.04290 0.05000
H 	H 	0.09340 0.47880 0.15890 0.04800
H 	H 	0.90080 0.64010 0.06880 0.37600
H 	H 	0.86950 0.73510 0.14310 0.39300
H 	H 	0.76320 0.67970 0.07460 0.39100
H 	H 	0.85270 0.64910 0.27850 0.40200
H 	H 	0.91000 0.72400 0.26600 0.39500
H 	H 	0.96560 0.62930 0.21210 0.41300
H 	H 	0.47017 0.89480 0.57140 -0.04400
H 	H 	0.79847 0.77940 0.47600 -0.02200
H 	H 	0.41827 0.79870 0.61800 0.06100
H 	H 	0.40097 0.62750 0.47330 0.17200
H 	H 	0.37747 0.52020 0.32630 -0.26500
H 	H 	0.61287 0.64750 0.62740 0.05200
H 	H 	0.46547 0.66650 0.62360 0.05500
H 	H 	0.76007 0.68010 0.52120 0.05100
H 	H 	0.56747 0.42870 0.35990 0.39100
H 	H 	0.53617 0.40800 0.26490 0.40900
H 	H 	0.42987 0.39490 0.32030 0.40400
H 	H 	0.51937 0.62940 0.35090 0.41700
H 	H 	0.57667 0.54200 0.27600 0.41300
H 	H 	0.63227 0.58280 0.37070 0.43100
H 	H 	0.13683 0.67660 0.10520 -0.04000
H 	H 	0.46513 0.69660 0.22060 -0.02000
H 	H 	0.08493 0.81930 0.20130 0.06500
H 	H 	0.06763 0.84580 0.37250 0.17100
H 	H 	0.04413 0.80610 0.47980 -0.25700
H 	H 	0.27953 0.97990 0.35250 0.05300
H 	H 	0.13213 0.95710 0.33350 0.05900
H 	H 	0.42673 0.84110 0.31990 0.05300
H 	H 	0.23413 0.93120 0.57130 0.39300
H 	H 	0.20283 0.85690 0.59200 0.41100
H 	H 	0.09653 0.92540 0.60510 0.41000
H 	H 	0.18603 0.72150 0.37060 0.41800
H 	H 	0.24333 0.73400 0.45800 0.41300
H 	H 	0.29893 0.78790 0.41720 0.43100
C 	C 	0.13890 0.46730 0.94470 0.45400
C 	C 	0.36230 0.56170 0.71050 0.08800
C 	C 	0.55590 0.50580 0.72250 0.04700
C 	C 	0.32940 0.58930 0.79650 -0.20500
C 	C 	0.25710 0.45370 0.88690 -0.51700
C 	C 	0.29050 0.35730 0.83460 0.91500
C 	C 	0.37950 0.59150 0.93910 -0.18700
C 	C 	0.41450 0.57350 0.84830 0.12300
C 	C 	0.53210 0.53150 0.80900 -0.18100
C 	C 	0.33500 0.32240 0.89220 -1.37600
C 	C 	0.38880 0.33680 0.76280 -1.39000
C 	C 	0.80557 0.47740 0.53270 0.43600
C 	C 	0.02897 0.14880 0.43830 0.15800
C 	C 	0.22257 0.21670 0.49420 0.06300
C 	C 	0.99607 0.20720 0.41070 -0.27600
C 	C 	0.92377 0.43320 0.54630 -0.46100
C 	C 	0.95717 0.47730 0.64270 0.72800
C 	C 	0.04617 0.34760 0.40850 -0.17300
C 	C 	0.08117 0.27480 0.42650 0.15800
C 	C 	0.19877 0.27750 0.46850 -0.19900
C 	C 	0.00167 0.56980 0.67760 -1.09500
C 	C 	0.05547 0.42600 0.66320 -1.18300
C 	C 	0.47223 0.05530 0.52260 0.45200
C 	C 	0.69563 0.28950 0.85120 0.08600
C 	C 	0.88923 0.27750 0.78330 0.04500
C 	C 	0.66273 0.20350 0.79280 -0.20500
C 	C 	0.59043 0.11310 0.56680 -0.51400
C 	C 	0.62383 0.16540 0.52270 0.90700
C 	C 	0.71283 0.06090 0.65240 -0.18500
C 	C 	0.74783 0.15170 0.72520 0.12000
C 	C 	0.86543 0.19100 0.72250 -0.18000
C 	C 	0.66833 0.10780 0.43020 -1.36400
C 	C 	0.72213 0.23720 0.57400 -1.37900
C 	C 	0.63890 0.53270 0.05530 0.45100
C 	C 	0.86230 0.43830 0.28950 0.07900
C 	C 	0.05590 0.49420 0.27750 0.05400
C 	C 	0.82940 0.41070 0.20350 -0.19600
C 	C 	0.75710 0.54630 0.11310 -0.50500
C 	C 	0.79050 0.64270 0.16540 0.88000
C 	C 	0.87950 0.40850 0.06090 -0.17500
C 	C 	0.91450 0.42650 0.15170 0.09900
C 	C 	0.03210 0.46850 0.19100 -0.15600
C 	C 	0.83500 0.67760 0.10780 -1.32900
C 	C 	0.88880 0.66320 0.23720 -1.34100
C 	C 	0.30557 0.52260 0.46730 0.45300
C 	C 	0.52897 0.85120 0.56170 0.08700
C 	C 	0.72257 0.78330 0.50580 0.04600
C 	C 	0.49607 0.79280 0.58930 -0.20600
C 	C 	0.42377 0.56680 0.45370 -0.51600
C 	C 	0.45717 0.52270 0.35730 0.91000
C 	C 	0.54617 0.65240 0.59150 -0.18700
C 	C 	0.58117 0.72520 0.57350 0.12200
C 	C 	0.69877 0.72250 0.53150 -0.18100
C 	C 	0.50167 0.43020 0.32240 -1.36900
C 	C 	0.55547 0.57400 0.33680 -1.38400
C 	C 	0.97223 0.94470 0.47740 0.42900
C 	C 	0.19563 0.71050 0.14880 0.08900
C 	C 	0.38923 0.72250 0.21670 0.04700
C 	C 	0.16273 0.79650 0.20720 -0.20500
C 	C 	0.09043 0.88690 0.43320 -0.49500
C 	C 	0.12383 0.83460 0.47730 0.90500
C 	C 	0.21283 0.93910 0.34760 -0.18700
C 	C 	0.24783 0.84830 0.27480 0.12300
C 	C 	0.36543 0.80900 0.27750 -0.18100
C 	C 	0.16833 0.89220 0.56980 -1.36900
C 	C 	0.22213 0.76280 0.42600 -1.38100
N 	N 	0.47070 0.52300 0.67460 -0.27900
N 	N 	0.36590 0.50860 0.94200 -0.15900
N 	N 	0.13737 0.15160 0.47700 -0.29200
N 	N 	0.03257 0.43340 0.49140 -0.15800
N 	N 	0.80403 0.32540 0.84840 -0.28000
N 	N 	0.69923 0.05800 0.56660 -0.15900
N 	N 	0.97070 0.47700 0.32540 -0.28800
N 	N 	0.86590 0.49140 0.05800 -0.16400
N 	N 	0.63737 0.84840 0.52300 -0.27900
N 	N 	0.53257 0.56660 0.50860 -0.15900
N 	N 	0.30403 0.67460 0.15160 -0.27900
N 	N 	0.19923 0.94200 0.43340 -0.15900
O 	O 	0.03810 0.42880 0.90260 -0.50700
O 	O 	0.14790 0.51470 0.02530 -0.51400
O 	O 	0.70477 0.47380 0.57120 -0.51300
O 	O 	0.81457 0.51060 0.48530 -0.51700
O 	O 	0.37143 0.09740 0.52620 -0.51700
O 	O 	0.48123 0.97470 0.48940 -0.51800
O 	O 	0.53810 0.57120 0.09740 -0.51700
O 	O 	0.64790 0.48530 0.97470 -0.51800
O 	O 	0.20477 0.52620 0.42880 -0.51400
O 	O 	0.31457 0.48940 0.51470 -0.51500
O 	O 	0.87143 0.90260 0.47380 -0.51600
O 	O 	0.98123 0.02530 0.51060 -0.51600
