data_crystal

_cell_length_a 10.24480
_cell_length_b 17.45870
_cell_length_c 17.45870
_cell_angle_alpha 120.00000
_cell_angle_beta  90.00000
_cell_angle_gamma 90.00000

_symmetry_space_group_name_	'P 1'
_symmetry_space_group_name_H-M	'P 1'

loop_
_symmetry_equiv_pos_as_xyz
  x,y,z

loop_
_atom_site_label
_atom_site_type_symbol
_atom_site_fract_x
_atom_site_fract_y
_atom_site_fract_z
_atom_site_charge
Zn	Zn	0.84569 0.45810 0.53313 1.22200
Zn	Zn	0.51236 0.07503 0.54190 1.21700
Zn	Zn	0.17902 0.46687 0.92497 1.21200
Zn	Zn	0.34569 0.54190 0.46687 1.21600
Zn	Zn	0.01236 0.92497 0.45810 1.20000
Zn	Zn	0.67902 0.53313 0.07503 1.21700
H 	H 	0.95420 0.53550 0.46140 0.12900
H 	H 	0.87970 0.47860 0.31520 0.23800
H 	H 	0.73010 0.45780 0.29880 0.25600
H 	H 	0.81530 0.41130 0.33840 0.22600
H 	H 	0.76600 0.59590 0.42930 0.03300
H 	H 	0.77610 0.79570 0.61900 0.11400
H 	H 	0.81920 0.89690 0.57530 -0.02500
H 	H 	0.06800 0.64520 0.46060 0.11300
H 	H 	0.10650 0.75290 0.42490 -0.00700
H 	H 	0.95710 0.63760 0.60700 0.09800
H 	H 	0.80690 0.65200 0.60230 0.07800
H 	H 	0.62087 0.92590 0.46450 0.11600
H 	H 	0.54637 0.83660 0.52140 0.22000
H 	H 	0.39677 0.84100 0.54220 0.24300
H 	H 	0.48197 0.92710 0.58870 0.21200
H 	H 	0.43267 0.83340 0.40410 0.03300
H 	H 	0.44277 0.82330 0.20430 0.10100
H 	H 	0.48587 0.67840 0.10310 -0.02000
H 	H 	0.73467 0.81540 0.35480 0.10400
H 	H 	0.77317 0.67200 0.24710 -0.00100
H 	H 	0.62377 0.96940 0.36240 0.07800
H 	H 	0.47357 0.95030 0.34800 0.06700
H 	H 	0.28753 0.53860 0.07410 0.11500
H 	H 	0.21303 0.68480 0.16340 0.19500
H 	H 	0.06343 0.70120 0.15900 0.20800
H 	H 	0.14863 0.66160 0.07290 0.18400
H 	H 	0.09933 0.57070 0.16660 0.04400
H 	H 	0.10943 0.38100 0.17670 0.09400
H 	H 	0.15253 0.42470 0.32160 -0.02700
H 	H 	0.40133 0.53940 0.18460 0.10100
H 	H 	0.43983 0.57510 0.32800 -0.00700
H 	H 	0.29043 0.39300 0.03060 0.07500
H 	H 	0.14023 0.39770 0.04970 0.05800
H 	H 	0.45420 0.46450 0.53860 0.11500
H 	H 	0.37970 0.52140 0.68480 0.21600
H 	H 	0.23010 0.54220 0.70120 0.23700
H 	H 	0.31530 0.58870 0.66160 0.20600
H 	H 	0.26600 0.40410 0.57070 0.03400
H 	H 	0.27610 0.20430 0.38100 0.09900
H 	H 	0.31920 0.10310 0.42470 -0.02200
H 	H 	0.56800 0.35480 0.53940 0.10200
H 	H 	0.60650 0.24710 0.57510 -0.00600
H 	H 	0.45710 0.36240 0.39300 0.07700
H 	H 	0.30690 0.34800 0.39770 0.06600
H 	H 	0.12087 0.07410 0.53550 0.11000
H 	H 	0.04637 0.16340 0.47860 0.14600
H 	H 	0.89677 0.15900 0.45780 0.20100
H 	H 	0.98197 0.07290 0.41130 0.17300
H 	H 	0.93267 0.16660 0.59590 0.05600
H 	H 	0.94277 0.17670 0.79570 0.15000
H 	H 	0.98587 0.32160 0.89690 0.01500
H 	H 	0.23467 0.18460 0.64520 0.11200
H 	H 	0.27317 0.32800 0.75290 -0.01300
H 	H 	0.12377 0.03060 0.63760 0.10000
H 	H 	0.97357 0.04970 0.65200 0.11900
H 	H 	0.78753 0.46140 0.92590 0.11700
H 	H 	0.71303 0.31520 0.83660 0.22600
H 	H 	0.56343 0.29880 0.84100 0.24900
H 	H 	0.64863 0.33840 0.92710 0.21700
H 	H 	0.59933 0.42930 0.83340 0.03300
H 	H 	0.60943 0.61900 0.82330 0.10400
H 	H 	0.65253 0.57530 0.67840 -0.02100
H 	H 	0.90133 0.46060 0.81540 0.11100
H 	H 	0.93983 0.42490 0.67200 0.00500
H 	H 	0.79043 0.60700 0.96940 0.08300
H 	H 	0.64023 0.60230 0.95030 0.07000
C 	C 	0.80220 0.46510 0.33710 -0.64000
C 	C 	0.77300 0.54050 0.43040 0.05400
C 	C 	0.84300 0.78530 0.57900 -0.23100
C 	C 	0.87020 0.84620 0.55310 0.13300
C 	C 	0.64420 0.52300 0.46290 0.29400
C 	C 	0.91630 0.70800 0.54480 0.22400
C 	C 	0.01710 0.69610 0.48520 -0.24700
C 	C 	0.03910 0.76090 0.46390 0.08700
C 	C 	0.88780 0.63760 0.56910 -0.20700
C 	C 	0.46887 0.87200 0.53490 -0.61300
C 	C 	0.43967 0.88990 0.45950 0.04300
C 	C 	0.50967 0.79370 0.21470 -0.20100
C 	C 	0.53687 0.70690 0.15380 0.11000
C 	C 	0.31087 0.93990 0.47700 0.29500
C 	C 	0.58297 0.83680 0.29200 0.16000
C 	C 	0.68377 0.78910 0.30390 -0.18000
C 	C 	0.70577 0.70300 0.23910 0.10900
C 	C 	0.55447 0.93150 0.36240 -0.17700
C 	C 	0.13553 0.66290 0.12800 -0.54100
C 	C 	0.10633 0.56960 0.11010 -0.01800
C 	C 	0.17633 0.42100 0.20630 -0.20400
C 	C 	0.20353 0.44690 0.29310 0.10600
C 	C 	0.97753 0.53710 0.06010 0.34800
C 	C 	0.24963 0.45520 0.16320 0.15500
C 	C 	0.35043 0.51480 0.21090 -0.18100
C 	C 	0.37243 0.53610 0.29700 0.10600
C 	C 	0.22113 0.43090 0.06850 -0.17500
C 	C 	0.30220 0.53490 0.66290 -0.60100
C 	C 	0.27300 0.45950 0.56960 0.03700
C 	C 	0.34300 0.21470 0.42100 -0.20200
C 	C 	0.37020 0.15380 0.44690 0.10900
C 	C 	0.14420 0.47700 0.53710 0.30100
C 	C 	0.41630 0.29200 0.45520 0.15800
C 	C 	0.51710 0.30390 0.51480 -0.18100
C 	C 	0.53910 0.23910 0.53610 0.10800
C 	C 	0.38780 0.36240 0.43090 -0.17600
C 	C 	0.96887 0.12800 0.46510 -0.44700
C 	C 	0.93967 0.11010 0.54050 0.01200
C 	C 	0.00967 0.20630 0.78530 -0.27900
C 	C 	0.03687 0.29310 0.84620 0.07600
C 	C 	0.81087 0.06010 0.52300 0.30800
C 	C 	0.08297 0.16320 0.70800 0.20300
C 	C 	0.18377 0.21090 0.69610 -0.21300
C 	C 	0.20577 0.29700 0.76090 0.12100
C 	C 	0.05447 0.06850 0.63760 -0.27500
C 	C 	0.63553 0.33710 0.87200 -0.62300
C 	C 	0.60633 0.43040 0.88990 0.04800
C 	C 	0.67633 0.57900 0.79370 -0.20400
C 	C 	0.70353 0.55310 0.70690 0.11300
C 	C 	0.47753 0.46290 0.93990 0.29500
C 	C 	0.74963 0.54480 0.83680 0.16500
C 	C 	0.85043 0.48520 0.78910 -0.18100
C 	C 	0.87243 0.46390 0.70300 0.11300
C 	C 	0.72113 0.56910 0.93150 -0.18100
N 	N 	0.87710 0.54880 0.49117 -0.26400
N 	N 	0.96780 0.83531 0.49690 -0.24600
N 	N 	0.54377 0.94237 0.45120 -0.26700
N 	N 	0.63447 0.66159 0.16469 -0.26700
N 	N 	0.21043 0.50883 0.05763 -0.26200
N 	N 	0.30113 0.50310 0.33841 -0.26800
N 	N 	0.37710 0.45120 0.50883 -0.26600
N 	N 	0.46780 0.16469 0.50310 -0.26800
N 	N 	0.04377 0.05763 0.54880 -0.26500
N 	N 	0.13447 0.33841 0.83531 -0.27100
N 	N 	0.71043 0.49117 0.94237 -0.26700
N 	N 	0.80113 0.49690 0.66159 -0.26500
Cl	Cl	0.82973 0.31249 0.43838 -0.52800
Cl	Cl	0.49640 0.12589 0.68751 -0.54500
Cl	Cl	0.16306 0.56162 0.87411 -0.56400
Cl	Cl	0.32973 0.68751 0.56162 -0.55200
Cl	Cl	0.99640 0.87411 0.31249 -0.50500
Cl	Cl	0.66306 0.43838 0.12589 -0.54000
O 	O 	0.64880 0.49114 0.51354 -0.41700
O 	O 	0.54200 0.53920 0.43371 -0.41100
O 	O 	0.31547 0.02240 0.50886 -0.41800
O 	O 	0.20867 0.89451 0.46080 -0.42200
O 	O 	0.98213 0.48646 0.97760 -0.41300
O 	O 	0.87533 0.56629 0.10549 -0.41500
O 	O 	0.14880 0.50886 0.48646 -0.43200
O 	O 	0.04200 0.46080 0.56629 -0.43700
O 	O 	0.81547 0.97760 0.49114 -0.41200
O 	O 	0.70867 0.10549 0.53920 -0.41400
O 	O 	0.48213 0.51354 0.02240 -0.41700
O 	O 	0.37533 0.43371 0.89451 -0.41200
