data_crystal

_cell_length_a 11.56800
_cell_length_b 14.16300
_cell_length_c 14.16300
_cell_angle_alpha 120.00000
_cell_angle_beta  90.00000
_cell_angle_gamma 90.00000

_symmetry_space_group_name_	'P 1'
_symmetry_space_group_name_H-M	'P 1'

loop_
_symmetry_equiv_pos_as_xyz
  x,y,z

loop_
_atom_site_label
_atom_site_type_symbol
_atom_site_fract_x
_atom_site_fract_y
_atom_site_fract_z
_atom_site_charge
Zn	Zn	0.02883 0.68099 0.53273 1.17400
Zn	Zn	0.36216 0.46727 0.14826 1.18500
Zn	Zn	0.69550 0.85174 0.31901 1.18600
Zn	Zn	0.52883 0.31901 0.46727 1.18600
Zn	Zn	0.86216 0.53273 0.85174 1.19100
Zn	Zn	0.19550 0.14826 0.68099 1.18500
H 	H 	0.90680 0.02320 0.32900 0.02700
H 	H 	0.24013 0.67100 0.69420 0.03600
H 	H 	0.57347 0.30580 0.97680 0.04000
H 	H 	0.40680 0.97680 0.67100 0.03200
H 	H 	0.74013 0.32900 0.30580 0.04000
H 	H 	0.07347 0.69420 0.02320 0.02600
H 	H 	0.07630 0.10010 0.42300 0.04700
H 	H 	0.40963 0.57700 0.67710 0.03300
H 	H 	0.74297 0.32290 0.89990 0.03700
H 	H 	0.57630 0.89990 0.57700 0.03700
H 	H 	0.90963 0.42300 0.32290 0.04400
H 	H 	0.24297 0.67710 0.10010 0.03300
C 	C 	0.86040 0.80330 0.45250 0.09800
C 	C 	0.19373 0.54750 0.35080 0.10000
C 	C 	0.52707 0.64920 0.19670 0.10300
C 	C 	0.36040 0.19670 0.54750 0.10300
C 	C 	0.69373 0.45250 0.64920 0.10400
C 	C 	0.02707 0.35080 0.80330 0.07000
C 	C 	0.93160 0.88740 0.44910 0.04600
C 	C 	0.26493 0.55090 0.43830 -0.00800
C 	C 	0.59827 0.56170 0.11260 -0.00600
C 	C 	0.43160 0.11260 0.55090 -0.00600
C 	C 	0.76493 0.44910 0.56170 -0.00400
C 	C 	0.09827 0.43830 0.88740 -0.00200
C 	C 	0.03220 0.93890 0.50870 -0.06000
C 	C 	0.36553 0.49130 0.43020 -0.00700
C 	C 	0.69887 0.56980 0.06110 -0.00400
C 	C 	0.53220 0.06110 0.49130 -0.00400
C 	C 	0.86553 0.50870 0.56980 -0.00200
C 	C 	0.19887 0.43020 0.93890 -0.01000
C 	C 	0.09130 0.92210 0.59170 0.11300
C 	C 	0.42463 0.40830 0.33040 0.10900
C 	C 	0.75797 0.66960 0.07790 0.11300
C 	C 	0.59130 0.07790 0.40830 0.11300
C 	C 	0.92463 0.59170 0.66960 0.11700
C 	C 	0.25797 0.33040 0.92210 0.11000
C 	C 	0.93790 0.99960 0.37420 0.06700
C 	C 	0.27123 0.62580 0.62540 0.00400
C 	C 	0.60457 0.37460 0.00040 0.00500
C 	C 	0.43790 0.00040 0.62580 0.01900
C 	C 	0.77123 0.37420 0.37460 0.00900
C 	C 	0.10457 0.62540 0.99960 0.01000
C 	C 	0.03950 0.04700 0.43250 -0.04800
C 	C 	0.37283 0.56750 0.61450 0.01800
C 	C 	0.70617 0.38550 0.95300 0.02100
C 	C 	0.53950 0.95300 0.56750 0.00900
C 	C 	0.87283 0.43250 0.38550 0.02000
C 	C 	0.20617 0.61450 0.04700 0.01100
N 	N 	0.87890 0.73950 0.49430 -0.20800
N 	N 	0.21223 0.50570 0.24520 -0.22200
N 	N 	0.54557 0.75480 0.26050 -0.22000
N 	N 	0.37890 0.26050 0.50570 -0.22100
N 	N 	0.71223 0.49430 0.75480 -0.22000
N 	N 	0.04557 0.24520 0.73950 -0.23000
N 	N 	0.78110 0.67880 0.47310 -0.05900
N 	N 	0.11443 0.52690 0.20570 -0.06600
N 	N 	0.44777 0.79430 0.32120 -0.06300
N 	N 	0.28110 0.32120 0.52690 -0.06400
N 	N 	0.61443 0.47310 0.79430 -0.06100
N 	N 	0.94777 0.20570 0.67880 -0.04000
N 	N 	0.70740 0.70650 0.42250 -0.05300
N 	N 	0.04073 0.57750 0.28400 -0.06500
N 	N 	0.37407 0.71600 0.29350 -0.05500
N 	N 	0.20740 0.29350 0.57750 -0.05800
N 	N 	0.54073 0.42250 0.71600 -0.05400
N 	N 	0.87407 0.28400 0.70650 -0.05000
N 	N 	0.75510 0.78440 0.40750 -0.22800
N 	N 	0.08843 0.59250 0.37690 -0.23800
N 	N 	0.42177 0.62310 0.21560 -0.23100
N 	N 	0.25510 0.21560 0.59250 -0.23200
N 	N 	0.58843 0.40750 0.62310 -0.23100
N 	N 	0.92177 0.37690 0.78440 -0.20900
N 	N 	0.88560 0.92050 0.38340 -0.19600
N 	N 	0.21893 0.61660 0.53710 -0.18500
N 	N 	0.55227 0.46290 0.07950 -0.18100
N 	N 	0.38560 0.07950 0.61660 -0.18300
N 	N 	0.71893 0.38340 0.46290 -0.18100
N 	N 	0.05227 0.53710 0.92050 -0.19300
N 	N 	0.08410 0.01920 0.49970 -0.14500
N 	N 	0.41743 0.50030 0.51950 -0.16200
N 	N 	0.75077 0.48050 0.98080 -0.15900
N 	N 	0.58410 0.98080 0.50030 -0.16200
N 	N 	0.91743 0.49970 0.48050 -0.15400
N 	N 	0.25077 0.51950 0.01920 -0.16200
N 	N 	0.09800 0.83410 0.60280 -0.23900
N 	N 	0.43133 0.39720 0.23130 -0.23200
N 	N 	0.76467 0.76870 0.16590 -0.23000
N 	N 	0.59800 0.16590 0.39720 -0.23100
N 	N 	0.93133 0.60280 0.76870 -0.21500
N 	N 	0.26467 0.23130 0.83410 -0.23200
N 	N 	0.16860 0.86440 0.69110 -0.06100
N 	N 	0.50193 0.30890 0.17330 -0.05800
N 	N 	0.83527 0.82670 0.13560 -0.05400
N 	N 	0.66860 0.13560 0.30890 -0.05600
N 	N 	0.00193 0.69110 0.82670 -0.07800
N 	N 	0.33527 0.17330 0.86440 -0.05800
N 	N 	0.20020 0.96480 0.73010 -0.05400
N 	N 	0.53353 0.26990 0.23470 -0.05000
N 	N 	0.86687 0.76530 0.03520 -0.04200
N 	N 	0.70020 0.03520 0.26990 -0.04700
N 	N 	0.03353 0.73010 0.76530 -0.06800
N 	N 	0.36687 0.23470 0.96480 -0.05100
N 	N 	0.15450 0.00360 0.66860 -0.23300
N 	N 	0.48783 0.33140 0.33500 -0.23300
N 	N 	0.82117 0.66500 0.99640 -0.22800
N 	N 	0.65450 0.99640 0.33140 -0.23500
N 	N 	0.98783 0.66860 0.66500 -0.21000
N 	N 	0.32117 0.33500 0.00360 -0.23400
