data_crystal

_cell_length_a 9.02500
_cell_length_b 9.02500
_cell_length_c 11.34300
_cell_angle_alpha 90.00000
_cell_angle_beta  90.00000
_cell_angle_gamma 120.00000

_symmetry_space_group_name_	'P 1'
_symmetry_space_group_name_H-M	'P 1'

loop_
_symmetry_equiv_pos_as_xyz
  x,y,z

loop_
_atom_site_label
_atom_site_type_symbol
_atom_site_fract_x
_atom_site_fract_y
_atom_site_fract_z
_atom_site_charge
In	In	0.50000 0.00000 0.66667 1.98800
In	In	0.50000 0.50000 -0.00000 1.96500
In	In	0.00000 0.50000 0.33333 1.98800
H 	H 	0.89580 0.97210 0.05260 0.18200
H 	H 	0.10420 0.02790 0.05260 0.10700
H 	H 	0.97210 0.89580 0.94740 0.29700
H 	H 	0.02790 0.10420 0.94740 0.21700
H 	H 	0.07630 0.10420 0.38593 0.12600
H 	H 	0.92370 0.89580 0.38593 0.19800
H 	H 	0.92370 0.02790 0.28073 0.15200
H 	H 	0.07630 0.97210 0.28073 0.15600
H 	H 	0.02790 0.92370 0.71927 0.16000
H 	H 	0.97210 0.07630 0.71927 0.16300
H 	H 	0.10420 0.07630 0.61407 0.12700
H 	H 	0.89580 0.92370 0.61407 0.20000
C 	C 	0.78905 0.21095 0.50000 0.25900
C 	C 	0.69025 0.30975 0.50000 0.23100
C 	C 	0.42190 0.21095 0.83333 0.26600
C 	C 	0.61950 0.30975 0.83333 0.23500
C 	C 	0.78905 0.57810 0.16667 0.25000
C 	C 	0.69025 0.38050 0.16667 0.22700
C 	C 	0.21095 0.78905 0.50000 0.25800
C 	C 	0.30975 0.69025 0.50000 0.23100
C 	C 	0.57810 0.78905 0.83333 0.26200
C 	C 	0.38050 0.69025 0.83333 0.24200
C 	C 	0.21095 0.42190 0.16667 0.25400
C 	C 	0.30975 0.61950 0.16667 0.22100
N 	N 	-0.00000 0.00000 -0.00000 -0.51000
N 	N 	-0.00000 -0.00000 0.33333 -0.37000
N 	N 	-0.00000 0.00000 0.66667 -0.37400
O 	O 	0.73190 0.07870 0.56140 -0.45400
O 	O 	0.55310 0.24140 0.55540 -0.38600
O 	O 	0.34680 0.26810 0.89473 -0.39700
O 	O 	0.68830 0.44690 0.88873 -0.32300
O 	O 	0.92130 0.65320 0.22807 -0.41600
O 	O 	0.75860 0.31170 0.22207 -0.38800
O 	O 	0.26810 0.92130 0.56140 -0.41600
O 	O 	0.44690 0.75860 0.55540 -0.36700
O 	O 	0.65320 0.73190 0.89473 -0.37800
O 	O 	0.31170 0.55310 0.88873 -0.33800
O 	O 	0.07870 0.34680 0.22807 -0.47000
O 	O 	0.24140 0.68830 0.22207 -0.39300
O 	O 	0.65320 0.92130 0.77193 -0.39600
O 	O 	0.31170 0.75860 0.77793 -0.36100
O 	O 	0.07870 0.73190 0.43860 -0.45400
O 	O 	0.24140 0.55310 0.44460 -0.38400
O 	O 	0.26810 0.34680 0.10527 -0.48400
O 	O 	0.44690 0.68830 0.11127 -0.41100
O 	O 	0.34680 0.07870 0.77193 -0.45200
O 	O 	0.68830 0.24140 0.77793 -0.36600
O 	O 	0.92130 0.26810 0.43860 -0.41700
O 	O 	0.75860 0.44690 0.44460 -0.36500
O 	O 	0.73190 0.65320 0.10527 -0.46800
O 	O 	0.55310 0.31170 0.11127 -0.42400
