data_crystal

_cell_length_a 10.44650
_cell_length_b 11.78590
_cell_length_c 14.60480
_cell_angle_alpha 90.00000
_cell_angle_beta  90.00000
_cell_angle_gamma 90.00000

_symmetry_space_group_name_	'P 1'
_symmetry_space_group_name_H-M	'P 1'

loop_
_symmetry_equiv_pos_as_xyz
  x,y,z

loop_
_atom_site_label
_atom_site_type_symbol
_atom_site_fract_x
_atom_site_fract_y
_atom_site_fract_z
_atom_site_charge
Zn	Zn	0.83150 0.80200 0.82664 1.18800
Zn	Zn	0.66850 0.19800 0.32664 1.18800
Zn	Zn	0.16850 0.30200 0.67336 1.18800
Zn	Zn	0.33150 0.69800 0.17336 1.18800
H 	H 	0.46980 0.47980 0.20760 -0.01300
H 	H 	0.80290 0.47870 0.06700 0.03600
H 	H 	0.53990 0.72630 0.03090 0.01800
H 	H 	0.03020 0.52020 0.70760 -0.01400
H 	H 	0.69710 0.52130 0.56700 0.03700
H 	H 	0.96010 0.27370 0.53090 0.01700
H 	H 	0.53020 0.97980 0.29240 -0.01300
H 	H 	0.19710 0.97870 0.43300 0.03700
H 	H 	0.46010 0.22630 0.46910 0.01800
H 	H 	0.96980 0.02020 0.79240 -0.01300
H 	H 	0.30290 0.02130 0.93300 0.03800
H 	H 	0.03990 0.77370 0.96910 0.01700
C 	C 	0.52557 0.51438 0.16443 0.06700
C 	C 	0.64175 0.46267 0.14568 -0.11800
C 	C 	0.72224 0.51182 0.08082 0.05300
C 	C 	0.56590 0.65830 0.06039 0.07100
C 	C 	0.76790 0.66632 0.96637 0.33300
C 	C 	0.68240 0.61058 0.03649 -0.11800
C 	C 	0.68330 0.35929 0.19905 0.33400
C 	C 	0.97443 0.48562 0.66443 0.06700
C 	C 	0.85825 0.53733 0.64568 -0.11700
C 	C 	0.77776 0.48818 0.58082 0.05300
C 	C 	0.93410 0.34170 0.56039 0.07100
C 	C 	0.73210 0.33368 0.46637 0.33300
C 	C 	0.81760 0.38942 0.53649 -0.11800
C 	C 	0.81670 0.64071 0.69905 0.33400
C 	C 	0.47443 0.01438 0.33557 0.06400
C 	C 	0.35825 0.96267 0.35432 -0.11500
C 	C 	0.27776 0.01182 0.41918 0.05100
C 	C 	0.43410 0.15830 0.43961 0.07100
C 	C 	0.23210 0.16632 0.53363 0.33300
C 	C 	0.31760 0.11058 0.46351 -0.11700
C 	C 	0.31670 0.85929 0.30095 0.33300
C 	C 	0.02557 0.98562 0.83557 0.06400
C 	C 	0.14175 0.03733 0.85432 -0.11300
C 	C 	0.22224 0.98818 0.91918 0.04900
C 	C 	0.06590 0.84170 0.93961 0.07000
C 	C 	0.26790 0.83368 0.03363 0.33400
C 	C 	0.18240 0.88942 0.96351 -0.11700
C 	C 	0.18330 0.14071 0.80095 0.33300
N 	N 	0.48822 0.61224 0.12373 -0.27100
N 	N 	0.01178 0.38776 0.62373 -0.27100
N 	N 	0.51178 0.11224 0.37627 -0.27100
N 	N 	0.98822 0.88776 0.87627 -0.27000
O 	O 	0.71643 0.74936 0.92233 -0.46600
O 	O 	0.87788 0.63223 0.95605 -0.31900
O 	O 	0.59435 0.30990 0.24370 -0.46400
O 	O 	0.79682 0.33189 0.19835 -0.33200
O 	O 	0.78357 0.25064 0.42233 -0.46600
O 	O 	0.62212 0.36777 0.45605 -0.31900
O 	O 	0.90565 0.69010 0.74370 -0.46300
O 	O 	0.70318 0.66811 0.69835 -0.33200
O 	O 	0.28357 0.24936 0.57767 -0.46500
O 	O 	0.12212 0.13223 0.54395 -0.31900
O 	O 	0.40565 0.80990 0.25630 -0.46300
O 	O 	0.20318 0.83189 0.30165 -0.33200
O 	O 	0.21643 0.75064 0.07767 -0.46500
O 	O 	0.37788 0.86777 0.04395 -0.31900
O 	O 	0.09435 0.19010 0.75630 -0.46300
O 	O 	0.29682 0.16811 0.80165 -0.33200
