data_crystal

_cell_length_a 8.93710
_cell_length_b 16.21550
_cell_length_c 16.21550
_cell_angle_alpha 116.70300
_cell_angle_beta  100.58600
_cell_angle_gamma 100.58600

_symmetry_space_group_name_	'P 1'
_symmetry_space_group_name_H-M	'P 1'

loop_
_symmetry_equiv_pos_as_xyz
  x,y,z

loop_
_atom_site_label
_atom_site_type_symbol
_atom_site_fract_x
_atom_site_fract_y
_atom_site_fract_z
_atom_site_charge
Fe	Fe	0.50000 0.50000 -0.00000 1.15800
Fe	Fe	-0.00000 0.50000 0.50000 1.15500
Fe	Fe	0.50000 0.00000 0.50000 1.15900
H 	H 	0.09870 0.66350 0.98050 0.13100
H 	H 	0.25780 0.82460 0.08790 -0.02300
H 	H 	0.52600 0.85420 0.16450 0.09700
H 	H 	0.62970 0.72600 0.13130 -0.00600
H 	H 	0.76370 0.35170 0.72740 0.10100
H 	H 	0.57080 0.21770 0.60310 -0.00500
H 	H 	0.77050 0.04730 0.66460 -0.01400
H 	H 	0.97500 0.17690 0.78640 0.10000
H 	H 	0.43520 0.31700 0.33650 0.06600
H 	H 	0.43320 0.26330 0.17540 0.00800
H 	H 	0.67180 0.31030 0.14580 0.06400
H 	H 	0.90370 0.40530 0.27400 0.01600
H 	H 	0.41200 0.37570 0.64830 0.08600
H 	H 	0.35310 0.38540 0.78230 -0.00000
H 	H 	0.72320 0.61730 0.95270 0.01100
H 	H 	0.79810 0.60950 0.82310 0.08500
H 	H 	0.11820 0.01950 0.68300 -0.01100
H 	H 	0.16990 0.91210 0.73670 0.05000
H 	H 	0.36150 0.83550 0.68970 0.05000
H 	H 	0.49840 0.86870 0.59470 0.01800
H 	H 	0.03630 0.27260 0.62430 0.05600
H 	H 	0.96770 0.39690 0.61460 0.05800
H 	H 	0.10590 0.33540 0.38270 -0.00600
H 	H 	0.18860 0.21360 0.39050 0.06200
H 	H 	0.90130 0.33650 0.01950 0.00500
H 	H 	0.74220 0.17540 0.91210 0.05600
H 	H 	0.47400 0.14580 0.83550 0.04400
H 	H 	0.37030 0.27400 0.86870 0.01400
H 	H 	0.23630 0.64830 0.27260 0.06900
H 	H 	0.42920 0.78230 0.39690 0.00600
H 	H 	0.22950 0.95270 0.33540 0.00800
H 	H 	0.02500 0.82310 0.21360 0.05100
H 	H 	0.56480 0.68300 0.66350 0.07200
H 	H 	0.56680 0.73670 0.82460 0.02500
H 	H 	0.32820 0.68970 0.85420 0.07700
H 	H 	0.09630 0.59470 0.72600 -0.00700
H 	H 	0.58800 0.62430 0.35170 0.08400
H 	H 	0.64690 0.61460 0.21770 0.00200
H 	H 	0.27680 0.38270 0.04730 -0.01700
H 	H 	0.20190 0.39050 0.17690 0.06500
H 	H 	0.88180 0.98050 0.31700 0.14800
H 	H 	0.83010 0.08790 0.26330 -0.01700
H 	H 	0.63850 0.16450 0.31030 0.09100
H 	H 	0.50160 0.13130 0.40530 -0.01000
H 	H 	0.96370 0.72740 0.37570 0.11400
H 	H 	0.03230 0.60310 0.38540 -0.05600
H 	H 	0.89410 0.66460 0.61730 0.00000
H 	H 	0.81140 0.78640 0.60950 0.08800
C 	C 	0.18990 0.50220 0.93270 0.04700
C 	C 	0.03310 0.36350 0.84160 0.04200
C 	C 	0.27430 0.60380 0.99460 0.14900
C 	C 	0.20840 0.67760 0.01200 -0.26400
C 	C 	0.30160 0.77260 0.07540 0.12700
C 	C 	0.45930 0.78980 0.12000 -0.18100
C 	C 	0.52060 0.71300 0.09990 0.09700
C 	C 	0.89680 0.28080 0.77040 0.11500
C 	C 	0.76990 0.28940 0.71410 -0.15800
C 	C 	0.65500 0.20910 0.64050 0.09800
C 	C 	0.77160 0.11010 0.67560 0.09400
C 	C 	0.89280 0.18710 0.74920 -0.15300
C 	C 	0.68770 0.43050 0.49780 0.07800
C 	C 	0.66960 0.47810 0.63650 0.08800
C 	C 	0.67050 0.39080 0.39620 0.04800
C 	C 	0.53080 0.33440 0.32240 -0.10400
C 	C 	0.52900 0.30280 0.22740 0.03100
C 	C 	0.66950 0.33020 0.21020 -0.11400
C 	C 	0.80760 0.38690 0.28700 0.06400
C 	C 	0.61600 0.48960 0.71920 0.05700
C 	C 	0.48050 0.42470 0.71060 -0.13000
C 	C 	0.44590 0.43140 0.79090 0.08100
C 	C 	0.66150 0.56550 0.88990 0.07800
C 	C 	0.70570 0.56210 0.81290 -0.12200
C 	C 	0.25720 0.06730 0.56950 0.10000
C 	C 	0.19150 0.15840 0.52190 0.08800
C 	C 	0.27970 0.00540 0.60920 -0.06200
C 	C 	0.19640 0.98800 0.66560 0.05600
C 	C 	0.22620 0.92460 0.69720 -0.06500
C 	C 	0.33930 0.88000 0.66980 -0.05100
C 	C 	0.42070 0.90010 0.61310 0.03200
C 	C 	0.12640 0.22960 0.51040 0.02300
C 	C 	0.05580 0.28590 0.57530 -0.07900
C 	C 	0.01450 0.35950 0.56860 -0.01200
C 	C 	0.09600 0.32440 0.43450 0.05700
C 	C 	0.14360 0.25080 0.43790 -0.10700
C 	C 	0.81010 0.49780 0.06730 0.10700
C 	C 	0.96690 0.63650 0.15840 0.13200
C 	C 	0.72570 0.39620 0.00540 -0.05800
C 	C 	0.79160 0.32240 0.98800 0.06300
C 	C 	0.69840 0.22740 0.92460 -0.06300
C 	C 	0.54070 0.21020 0.88000 -0.04900
C 	C 	0.47940 0.28700 0.90010 0.03200
C 	C 	0.10320 0.71920 0.22960 -0.00700
C 	C 	0.23010 0.71060 0.28590 -0.10000
C 	C 	0.34500 0.79090 0.35950 0.06000
C 	C 	0.22840 0.88990 0.32440 0.05300
C 	C 	0.10720 0.81290 0.25080 -0.09400
C 	C 	0.31230 0.56950 0.50220 0.07500
C 	C 	0.33040 0.52190 0.36350 0.08800
C 	C 	0.32950 0.60920 0.60380 0.04500
C 	C 	0.46920 0.66560 0.67760 -0.10100
C 	C 	0.47100 0.69720 0.77260 0.03500
C 	C 	0.33050 0.66980 0.78980 -0.11800
C 	C 	0.19240 0.61310 0.71300 0.06600
C 	C 	0.38400 0.51040 0.28080 0.05000
C 	C 	0.51950 0.57530 0.28940 -0.12700
C 	C 	0.55410 0.56860 0.20910 0.07700
C 	C 	0.33850 0.43450 0.11010 0.06900
C 	C 	0.29430 0.43790 0.18710 -0.12400
C 	C 	0.74280 0.93270 0.43050 0.05400
C 	C 	0.80850 0.84160 0.47810 0.08700
C 	C 	0.72030 0.99460 0.39080 0.15300
C 	C 	0.80360 0.01200 0.33440 -0.25900
C 	C 	0.77380 0.07540 0.30280 0.13100
C 	C 	0.66070 0.12000 0.33020 -0.18000
C 	C 	0.57930 0.09990 0.38690 0.09800
C 	C 	0.87360 0.77040 0.48960 0.08400
C 	C 	0.94420 0.71410 0.42470 -0.17700
C 	C 	0.98550 0.64050 0.43140 0.16900
C 	C 	0.90400 0.67560 0.56550 0.08900
C 	C 	0.85640 0.74920 0.56210 -0.13800
N 	N 	0.27310 0.44150 0.93280 -0.21000
N 	N 	0.16970 0.35010 0.87360 -0.09700
N 	N 	0.03690 0.45640 0.87650 -0.12300
N 	N 	0.43160 0.61970 0.03720 -0.27800
N 	N 	0.65260 0.11760 0.61710 -0.26200
N 	N 	0.83160 0.49130 0.55850 -0.21500
N 	N 	0.81960 0.52350 0.64990 -0.09400
N 	N 	0.58050 0.42010 0.54360 -0.12700
N 	N 	0.81190 0.41750 0.38030 -0.23300
N 	N 	0.53500 0.49950 0.88240 -0.24600
N 	N 	0.34030 0.06720 0.50870 -0.23400
N 	N 	0.29610 0.12640 0.47650 -0.10600
N 	N 	0.16040 0.12350 0.57990 -0.14200
N 	N 	0.39440 0.96280 0.58250 -0.20300
N 	N 	0.03550 0.38290 0.50050 -0.24300
N 	N 	0.72690 0.55850 0.06720 -0.23300
N 	N 	0.83030 0.64990 0.12640 -0.10500
N 	N 	0.96310 0.54360 0.12350 -0.13100
N 	N 	0.56840 0.38030 0.96280 -0.20200
N 	N 	0.34740 0.88240 0.38290 -0.24100
N 	N 	0.16840 0.50870 0.44150 -0.22800
N 	N 	0.18040 0.47650 0.35010 -0.10800
N 	N 	0.41950 0.57990 0.45640 -0.12800
N 	N 	0.18810 0.58250 0.61970 -0.24700
N 	N 	0.46500 0.50050 0.11760 -0.25600
N 	N 	0.65970 0.93280 0.49130 -0.21000
N 	N 	0.70390 0.87360 0.52350 -0.09600
N 	N 	0.83960 0.87650 0.42010 -0.11300
N 	N 	0.60560 0.03720 0.41750 -0.27800
N 	N 	0.96450 0.61710 0.49950 -0.25900
