data_crystal

_cell_length_a 16.14500
_cell_length_b 17.97750
_cell_length_c 17.97750
_cell_angle_alpha 111.44300
_cell_angle_beta  107.41900
_cell_angle_gamma 107.41900

_symmetry_space_group_name_	'P 1'
_symmetry_space_group_name_H-M	'P 1'

loop_
_symmetry_equiv_pos_as_xyz
  x,y,z

loop_
_atom_site_label
_atom_site_type_symbol
_atom_site_fract_x
_atom_site_fract_y
_atom_site_fract_z
_atom_site_charge
Fe	Fe	-0.00000 0.50000 -0.00000 1.11500
Fe	Fe	0.50000 0.50000 0.50000 1.17300
Fe	Fe	0.00000 0.00000 0.50000 1.11600
Fe	Fe	0.00000 0.50000 0.50000 1.13600
Fe	Fe	0.50000 0.50000 -0.00000 1.15100
Fe	Fe	0.50000 0.00000 0.50000 1.15200
H 	H 	0.84890 0.25750 0.05270 0.12800
H 	H 	0.69390 0.18580 0.93480 -0.03100
H 	H 	0.66010 0.24850 0.84210 0.11200
H 	H 	0.78010 0.37600 0.86940 -0.01900
H 	H 	0.32760 0.56600 0.27400 0.08800
H 	H 	0.45620 0.57750 0.38160 -0.00800
H 	H 	0.28270 0.42140 0.42730 -0.01200
H 	H 	0.15120 0.40630 0.32150 0.08200
H 	H 	0.59140 0.79520 0.74250 0.08800
H 	H 	0.50810 0.74900 0.81420 0.02300
H 	H 	0.41160 0.59360 0.75150 0.08800
H 	H 	0.40410 0.49340 0.62400 -0.00800
H 	H 	0.76160 0.70800 0.43400 0.09900
H 	H 	0.87870 0.80410 0.42250 -0.00500
H 	H 	0.86130 0.00590 0.57860 -0.05800
H 	H 	0.74490 0.91520 0.59370 0.13100
H 	H 	0.79620 0.94730 0.20480 0.05500
H 	H 	0.75910 0.06520 0.25100 0.03400
H 	H 	0.81800 0.15790 0.40640 0.06800
H 	H 	0.91070 0.13060 0.50660 0.02000
H 	H 	0.05360 0.72600 0.29200 0.10700
H 	H 	0.07460 0.61840 0.19590 -0.00300
H 	H 	0.85540 0.57270 0.99410 0.03900
H 	H 	0.82970 0.67850 0.08480 0.08800
H 	H 	0.15110 0.74250 0.94730 0.03000
H 	H 	0.30610 0.81420 0.06520 0.05700
H 	H 	0.33990 0.75150 0.15790 0.05700
H 	H 	0.21990 0.62400 0.13060 0.00800
H 	H 	0.67240 0.43400 0.72600 0.09400
H 	H 	0.54380 0.42250 0.61840 -0.01200
H 	H 	0.71730 0.57860 0.57270 -0.01400
H 	H 	0.84880 0.59370 0.67850 0.11600
H 	H 	0.40860 0.20480 0.25750 0.07000
H 	H 	0.49190 0.25100 0.18580 0.00200
H 	H 	0.58840 0.40640 0.24850 0.08200
H 	H 	0.59590 0.50660 0.37600 -0.00800
H 	H 	0.23840 0.29200 0.56600 0.08100
H 	H 	0.12130 0.19590 0.57750 -0.01200
H 	H 	0.13870 0.99410 0.42140 0.03800
H 	H 	0.25510 0.08480 0.40630 0.06400
H 	H 	0.20380 0.05270 0.79520 0.10300
H 	H 	0.24090 0.93480 0.74900 -0.01100
H 	H 	0.18200 0.84210 0.59360 0.10100
H 	H 	0.08930 0.86940 0.49340 -0.03300
H 	H 	0.94640 0.27400 0.70800 0.07400
H 	H 	0.92540 0.38160 0.80410 -0.01300
H 	H 	0.14460 0.42730 0.00590 -0.06600
H 	H 	0.17030 0.32150 0.91520 0.11000
H 	H 	0.90860 0.25750 0.20480 0.13100
H 	H 	0.99190 0.18580 0.25100 -0.05800
H 	H 	0.08840 0.24850 0.40640 0.14400
H 	H 	0.09590 0.37600 0.50660 -0.04900
H 	H 	0.73840 0.56600 0.29200 0.08300
H 	H 	0.62130 0.57750 0.19590 -0.00500
H 	H 	0.63870 0.42140 0.99410 0.05100
H 	H 	0.75510 0.40630 0.08480 0.06700
H 	H 	0.70380 0.79520 0.05270 0.10800
H 	H 	0.74090 0.74900 0.93480 -0.00500
H 	H 	0.68200 0.59360 0.84210 0.10600
H 	H 	0.58930 0.49340 0.86940 -0.01700
H 	H 	0.44640 0.70800 0.27400 0.09800
H 	H 	0.42540 0.80410 0.38160 -0.01500
H 	H 	0.64460 0.00590 0.42730 -0.07400
H 	H 	0.67030 0.91520 0.32150 0.12900
H 	H 	0.65110 0.94730 0.74250 0.06000
H 	H 	0.80610 0.06520 0.81420 0.05300
H 	H 	0.83990 0.15790 0.75150 0.07600
H 	H 	0.71990 0.13060 0.62400 0.00400
H 	H 	0.17240 0.72600 0.43400 0.08800
H 	H 	0.04380 0.61840 0.42250 -0.03300
H 	H 	0.21730 0.57270 0.57860 -0.01400
H 	H 	0.34880 0.67850 0.59370 0.10000
H 	H 	0.09140 0.74250 0.79520 0.02800
H 	H 	0.00810 0.81420 0.74900 0.08100
H 	H 	0.91160 0.75150 0.59360 0.02600
H 	H 	0.90410 0.62400 0.49340 0.03400
H 	H 	0.26160 0.43400 0.70800 0.09800
H 	H 	0.37870 0.42250 0.80410 -0.01500
H 	H 	0.36130 0.57860 0.00590 -0.07800
H 	H 	0.24490 0.59370 0.91520 0.13100
H 	H 	0.29620 0.20480 0.94730 0.04800
H 	H 	0.25910 0.25100 0.06520 0.02900
H 	H 	0.31800 0.40640 0.15790 0.06200
H 	H 	0.41070 0.50660 0.13060 0.00300
H 	H 	0.55360 0.29200 0.72600 0.08200
H 	H 	0.57460 0.19590 0.61840 -0.00500
H 	H 	0.35540 0.99410 0.57270 0.04900
H 	H 	0.32970 0.08480 0.67850 0.06700
H 	H 	0.34890 0.05270 0.25750 0.09700
H 	H 	0.19390 0.93480 0.18580 -0.02900
H 	H 	0.16010 0.84210 0.24850 0.09300
H 	H 	0.28010 0.86940 0.37600 -0.01900
H 	H 	0.82760 0.27400 0.56600 0.09200
H 	H 	0.95620 0.38160 0.57750 0.01500
H 	H 	0.78270 0.42730 0.42140 -0.01100
H 	H 	0.65120 0.32150 0.40630 0.09600
C 	C 	0.00400 0.40720 0.09590 -0.02000
C 	C 	0.14120 0.46390 0.20270 0.07600
C 	C 	0.90280 0.35680 0.02540 0.14300
C 	C 	0.83310 0.27970 0.01400 -0.26800
C 	C 	0.74210 0.23800 0.94530 0.19600
C 	C 	0.72220 0.27550 0.88980 -0.21800
C 	C 	0.79470 0.35170 0.90630 0.13800
C 	C 	0.22330 0.47910 0.27960 0.07500
C 	C 	0.31620 0.53360 0.30310 -0.15700
C 	C 	0.39340 0.54090 0.36900 0.09500
C 	C 	0.29320 0.45090 0.39540 0.09700
C 	C 	0.21330 0.44030 0.33070 -0.15800
C 	C 	0.59680 0.68870 0.59280 0.07300
C 	C 	0.67730 0.73880 0.53610 0.07100
C 	C 	0.54600 0.66860 0.64320 0.06000
C 	C 	0.55340 0.73430 0.72030 -0.12400
C 	C 	0.50410 0.70730 0.76200 0.05600
C 	C 	0.44670 0.61430 0.72450 -0.14200
C 	C 	0.44300 0.55460 0.64830 0.08800
C 	C 	0.74420 0.80050 0.52090 0.12200
C 	C 	0.78260 0.76950 0.46640 -0.18300
C 	C 	0.85250 0.82810 0.45910 0.12000
C 	C 	0.84230 0.94450 0.54910 0.21200
C 	C 	0.77300 0.89040 0.55970 -0.22100
C 	C 	0.90810 0.90410 0.31130 0.08600
C 	C 	0.93850 0.79730 0.26120 0.06900
C 	C 	0.87740 0.97460 0.33140 0.06900
C 	C 	0.81910 0.98600 0.26570 -0.03700
C 	C 	0.79680 0.05470 0.29270 -0.04300
C 	C 	0.83240 0.11020 0.38570 -0.09000
C 	C 	0.88840 0.09370 0.44540 0.05800
C 	C 	0.94370 0.72040 0.19950 0.16900
C 	C 	0.01310 0.69690 0.23050 -0.25700
C 	C 	0.02440 0.63100 0.17190 0.05700
C 	C 	0.89780 0.60460 0.05550 0.04300
C 	C 	0.88260 0.66930 0.10960 -0.15400
C 	C 	0.99600 0.59280 0.90410 0.15900
C 	C 	0.85880 0.53610 0.79730 0.08000
C 	C 	0.09720 0.64320 0.97460 -0.02000
C 	C 	0.16690 0.72030 0.98600 0.01800
C 	C 	0.25790 0.76200 0.05470 -0.09100
C 	C 	0.27780 0.72450 0.11020 -0.06700
C 	C 	0.20530 0.64830 0.09370 0.03400
C 	C 	0.77670 0.52090 0.72040 0.10000
C 	C 	0.68380 0.46640 0.69690 -0.17200
C 	C 	0.60660 0.45910 0.63100 0.10600
C 	C 	0.70680 0.54910 0.60460 0.11500
C 	C 	0.78670 0.55970 0.66930 -0.17400
C 	C 	0.40320 0.31130 0.40720 0.06700
C 	C 	0.32270 0.26120 0.46390 0.08600
C 	C 	0.45400 0.33140 0.35680 0.05600
C 	C 	0.44660 0.26570 0.27970 -0.12800
C 	C 	0.49590 0.29270 0.23800 0.05300
C 	C 	0.55330 0.38570 0.27550 -0.14600
C 	C 	0.55700 0.44540 0.35170 0.08700
C 	C 	0.25580 0.19950 0.47910 0.04900
C 	C 	0.21740 0.23050 0.53360 -0.14300
C 	C 	0.14750 0.17190 0.54090 0.07900
C 	C 	0.15770 0.05550 0.45090 -0.00700
C 	C 	0.22700 0.10960 0.44030 -0.10600
C 	C 	0.09190 0.09590 0.68870 0.05600
C 	C 	0.06150 0.20270 0.73880 0.08700
C 	C 	0.12260 0.02540 0.66860 0.04900
C 	C 	0.18090 0.01400 0.73430 -0.21900
C 	C 	0.20320 0.94530 0.70730 0.15600
C 	C 	0.16760 0.88980 0.61430 -0.19900
C 	C 	0.11160 0.90630 0.55460 0.11700
C 	C 	0.05630 0.27960 0.80050 0.00700
C 	C 	0.98690 0.30310 0.76950 -0.07100
C 	C 	0.97560 0.36900 0.82810 0.14100
C 	C 	0.10220 0.39540 0.94450 0.17300
C 	C 	0.11740 0.33070 0.89040 -0.17900
C 	C 	0.90320 0.40720 0.31130 0.04900
C 	C 	0.82270 0.46390 0.26120 0.09700
C 	C 	0.95400 0.35680 0.33140 0.18100
C 	C 	0.94660 0.27970 0.26570 -0.27100
C 	C 	0.99590 0.23800 0.29270 0.29000
C 	C 	0.05330 0.27550 0.38570 -0.36700
C 	C 	0.05700 0.35170 0.44540 0.18200
C 	C 	0.75580 0.47910 0.19950 0.05400
C 	C 	0.71740 0.53360 0.23050 -0.13600
C 	C 	0.64750 0.54090 0.17190 0.08300
C 	C 	0.65770 0.45090 0.05550 -0.00500
C 	C 	0.72700 0.44030 0.10960 -0.09700
C 	C 	0.59190 0.68870 0.09590 0.06400
C 	C 	0.56150 0.73880 0.20270 0.06700
C 	C 	0.62260 0.66860 0.02540 0.05300
C 	C 	0.68090 0.73430 0.01400 -0.21700
C 	C 	0.70320 0.70730 0.94530 0.16100
C 	C 	0.66760 0.61430 0.88980 -0.19100
C 	C 	0.61160 0.55460 0.90630 0.12200
C 	C 	0.55630 0.80050 0.27960 0.12100
C 	C 	0.48690 0.76950 0.30310 -0.18900
C 	C 	0.47560 0.82810 0.36900 0.11600
C 	C 	0.60220 0.94450 0.39540 0.21100
C 	C 	0.61740 0.89040 0.33070 -0.22900
C 	C 	0.49600 0.90410 0.59280 0.07800
C 	C 	0.35880 0.79730 0.53610 0.07800
C 	C 	0.59720 0.97460 0.64320 0.06400
C 	C 	0.66690 0.98600 0.72030 -0.03500
C 	C 	0.75790 0.05470 0.76200 -0.04500
C 	C 	0.77780 0.11020 0.72450 -0.09200
C 	C 	0.70530 0.09370 0.64830 0.05400
C 	C 	0.27670 0.72040 0.52090 0.09000
C 	C 	0.18380 0.69690 0.46640 -0.17100
C 	C 	0.10660 0.63100 0.45910 0.10000
C 	C 	0.20680 0.60460 0.54910 0.10700
C 	C 	0.28670 0.66930 0.55970 -0.16800
C 	C 	0.09680 0.59280 0.68870 0.09200
C 	C 	0.17730 0.53610 0.73880 0.05900
C 	C 	0.04600 0.64320 0.66860 -0.06100
C 	C 	0.05340 0.72030 0.73430 0.01600
C 	C 	0.00410 0.76200 0.70730 -0.17400
C 	C 	0.94670 0.72450 0.61430 0.07300
C 	C 	0.94300 0.64830 0.55460 -0.00500
C 	C 	0.24420 0.52090 0.80050 0.12200
C 	C 	0.28260 0.46640 0.76950 -0.19300
C 	C 	0.35250 0.45910 0.82810 0.11800
C 	C 	0.34230 0.54910 0.94450 0.21900
C 	C 	0.27300 0.55970 0.89040 -0.23500
C 	C 	0.40810 0.31130 0.90410 0.07700
C 	C 	0.43850 0.26120 0.79730 0.09000
C 	C 	0.37740 0.33140 0.97460 0.06300
C 	C 	0.31910 0.26570 0.98600 -0.03200
C 	C 	0.29680 0.29270 0.05470 -0.05500
C 	C 	0.33240 0.38570 0.11020 -0.09400
C 	C 	0.38840 0.44540 0.09370 0.05100
C 	C 	0.44370 0.19950 0.72040 0.05300
C 	C 	0.51310 0.23050 0.69690 -0.13900
C 	C 	0.52440 0.17190 0.63100 0.08400
C 	C 	0.39780 0.05550 0.60460 -0.00100
C 	C 	0.38260 0.10960 0.66930 -0.10100
C 	C 	0.50400 0.09590 0.40720 0.06300
C 	C 	0.64120 0.20270 0.46390 0.07800
C 	C 	0.40280 0.02540 0.35680 0.05300
C 	C 	0.33310 0.01400 0.27970 -0.21900
C 	C 	0.24210 0.94530 0.23800 0.15700
C 	C 	0.22220 0.88980 0.27550 -0.19600
C 	C 	0.29470 0.90630 0.35170 0.12100
C 	C 	0.72330 0.27960 0.47910 0.08400
C 	C 	0.81620 0.30310 0.53360 -0.15700
C 	C 	0.89340 0.36900 0.54090 0.10000
C 	C 	0.79320 0.39540 0.45090 0.10400
C 	C 	0.71330 0.33070 0.44030 -0.16200
N 	N 	0.06240 0.47800 0.09500 -0.22000
N 	N 	0.15110 0.51290 0.16390 -0.10000
N 	N 	0.05070 0.39610 0.16310 -0.13100
N 	N 	0.88490 0.39250 0.97260 -0.23400
N 	N 	0.38500 0.49990 0.41630 -0.26200
N 	N 	0.58440 0.61700 0.52200 -0.22100
N 	N 	0.63820 0.65100 0.48710 -0.09700
N 	N 	0.65460 0.76700 0.60390 -0.11900
N 	N 	0.49240 0.58010 0.60750 -0.25200
N 	N 	0.88510 0.91640 0.50010 -0.25700
N 	N 	0.96740 0.90500 0.38300 -0.19300
N 	N 	0.98720 0.83610 0.34900 -0.07300
N 	N 	0.88760 0.83690 0.23300 -0.12100
N 	N 	0.91230 0.02740 0.41990 -0.24700
N 	N 	0.96870 0.58370 0.08360 -0.21000
N 	N 	0.93760 0.52200 0.90500 -0.20700
N 	N 	0.84890 0.48710 0.83610 -0.09600
N 	N 	0.94930 0.60390 0.83690 -0.12000
N 	N 	0.11510 0.60750 0.02740 -0.25800
N 	N 	0.61500 0.50010 0.58370 -0.26600
N 	N 	0.41560 0.38300 0.47800 -0.22100
N 	N 	0.36180 0.34900 0.51290 -0.10100
N 	N 	0.34540 0.23300 0.39610 -0.13200
N 	N 	0.50760 0.41990 0.39250 -0.25200
N 	N 	0.11490 0.08360 0.49990 -0.25600
N 	N 	0.03260 0.09500 0.61700 -0.23500
N 	N 	0.01280 0.16390 0.65100 -0.12400
N 	N 	0.11240 0.16310 0.76700 -0.13000
N 	N 	0.08770 0.97260 0.58010 -0.24200
N 	N 	0.03130 0.41630 0.91640 -0.30200
N 	N 	0.91560 0.47800 0.38300 -0.19600
N 	N 	0.86180 0.51290 0.34900 -0.09500
N 	N 	0.84540 0.39610 0.23300 -0.12100
N 	N 	0.00760 0.39250 0.41990 -0.32700
N 	N 	0.61490 0.49990 0.08360 -0.24800
N 	N 	0.53260 0.61700 0.09500 -0.22400
N 	N 	0.51280 0.65100 0.16390 -0.09700
N 	N 	0.61240 0.76700 0.16310 -0.12300
N 	N 	0.58770 0.58010 0.97260 -0.23300
N 	N 	0.53130 0.91640 0.41630 -0.27400
N 	N 	0.43760 0.90500 0.52200 -0.21300
N 	N 	0.34890 0.83610 0.48710 -0.09800
N 	N 	0.44930 0.83690 0.60390 -0.12400
N 	N 	0.61510 0.02740 0.60750 -0.26500
N 	N 	0.11500 0.58370 0.50010 -0.27200
N 	N 	0.08440 0.52200 0.61700 -0.23600
N 	N 	0.13820 0.48710 0.65100 -0.10100
N 	N 	0.15460 0.60390 0.76700 -0.13000
N 	N 	0.99240 0.60750 0.58010 -0.17000
N 	N 	0.38510 0.50010 0.91640 -0.27500
N 	N 	0.46740 0.38300 0.90500 -0.21200
N 	N 	0.48720 0.34900 0.83610 -0.10000
N 	N 	0.38760 0.23300 0.83690 -0.12900
N 	N 	0.41230 0.41990 0.02740 -0.26600
N 	N 	0.46870 0.08360 0.58370 -0.24800
N 	N 	0.56240 0.09500 0.47800 -0.22400
N 	N 	0.65110 0.16390 0.51290 -0.09800
N 	N 	0.55070 0.16310 0.39610 -0.12700
N 	N 	0.38490 0.97260 0.39250 -0.23400
N 	N 	0.88500 0.41630 0.49990 -0.24600
