data_crystal

_cell_length_a 4.96930
_cell_length_b 10.74400
_cell_length_c 12.00130
_cell_angle_alpha 90.00000
_cell_angle_beta  90.00000
_cell_angle_gamma 94.05830

_symmetry_space_group_name_	'P 1'
_symmetry_space_group_name_H-M	'P 1'

loop_
_symmetry_equiv_pos_as_xyz
  x,y,z

loop_
_atom_site_label
_atom_site_type_symbol
_atom_site_fract_x
_atom_site_fract_y
_atom_site_fract_z
_atom_site_charge
Al	Al	0.00000 -0.00000 0.50000 2.34300
Al	Al	-0.00000 0.00000 -0.00000 2.33700
Al	Al	0.75230 0.10980 0.75000 2.39100
Al	Al	0.24770 0.89020 0.25000 2.39300
P 	P 	0.47910 0.81770 0.48689 0.56400
P 	P 	0.52090 0.18230 0.98689 0.76200
P 	P 	0.52090 0.18230 0.51311 0.55700
P 	P 	0.47910 0.81770 0.01311 0.36800
C 	C 	0.55230 0.56230 0.47650 0.12300
C 	C 	0.39430 0.65830 0.53310 -0.16200
C 	C 	0.44770 0.43770 0.97650 0.10400
C 	C 	0.60570 0.34170 0.03310 -0.13900
C 	C 	0.44770 0.43770 0.52350 -0.09300
C 	C 	0.60570 0.34170 0.46690 0.02600
C 	C 	0.55230 0.56230 0.02350 -0.07300
C 	C 	0.39430 0.65830 0.96690 0.00100
O 	O 	0.29240 0.90340 0.54450 -0.50200
O 	O 	0.44460 0.81720 0.36000 -0.64300
O 	O 	0.76660 0.85460 0.51870 -0.26900
O 	O 	0.70760 0.09660 0.04450 -0.73600
O 	O 	0.55540 0.18280 0.86000 -0.77200
O 	O 	0.23340 0.14540 0.01870 -0.98800
O 	O 	0.70760 0.09660 0.45550 -0.64900
O 	O 	0.55540 0.18280 0.64000 -0.75800
O 	O 	0.23340 0.14540 0.48130 -0.88700
O 	O 	0.29240 0.90340 0.95550 -0.41500
O 	O 	0.44460 0.81720 0.14000 -0.62900
O 	O 	0.76660 0.85460 0.98130 -0.17200
F 	F 	0.95280 0.03220 0.64880 -1.03200
F 	F 	0.04720 0.96780 0.14880 -1.02500
F 	F 	0.04720 0.96780 0.35120 -1.01000
F 	F 	0.95280 0.03220 0.85120 -1.01500
