data_crystal

_cell_length_a 12.07800
_cell_length_b 12.08700
_cell_length_c 13.68460
_cell_angle_alpha 81.11790
_cell_angle_beta  63.81330
_cell_angle_gamma 69.52000

_symmetry_space_group_name_	'P 1'
_symmetry_space_group_name_H-M	'P 1'

loop_
_symmetry_equiv_pos_as_xyz
  x,y,z

loop_
_atom_site_label
_atom_site_type_symbol
_atom_site_fract_x
_atom_site_fract_y
_atom_site_fract_z
_atom_site_charge
Fe	Fe	-0.00000 0.00000 -0.00000 1.02500
Fe	Fe	0.10439 0.25846 -0.00000 1.03000
Fe	Fe	0.89561 0.74154 -0.00000 1.08500
H 	H 	0.33140 0.91910 0.57080 0.04100
H 	H 	0.52310 0.11460 0.60600 0.05100
H 	H 	0.09780 0.08090 0.57080 0.14000
H 	H 	0.87090 0.88540 0.60600 0.15200
H 	H 	0.66860 0.08090 0.42920 0.08500
H 	H 	0.47690 0.88540 0.39400 0.07100
H 	H 	0.90220 0.91910 0.42920 -0.01800
H 	H 	0.12910 0.11460 0.39400 -0.03200
H 	H 	0.52830 0.29260 -0.00000 0.02400
H 	H 	0.66340 0.56040 -0.00000 0.02500
H 	H 	0.47170 0.70740 -0.00000 0.03100
H 	H 	0.33660 0.43960 -0.00000 0.01200
C 	C 	0.40060 0.95180 0.54220 0.03400
C 	C 	0.41240 0.01930 0.61000 -0.05500
C 	C 	0.51380 0.06700 0.56280 0.01400
C 	C 	0.31660 0.04230 0.72280 0.12400
C 	C 	0.05720 0.04820 0.54220 -0.33800
C 	C 	0.97760 0.98070 0.61000 0.25000
C 	C 	0.92340 0.93300 0.56280 -0.25900
C 	C 	0.96060 0.95770 0.72280 0.08100
C 	C 	0.59940 0.04820 0.45780 -0.10600
C 	C 	0.58760 0.98070 0.39000 0.05200
C 	C 	0.48620 0.93300 0.43720 -0.08300
C 	C 	0.68340 0.95770 0.27720 0.12500
C 	C 	0.94280 0.95180 0.45780 0.26700
C 	C 	0.02240 0.01930 0.39000 -0.25700
C 	C 	0.07660 0.06700 0.43720 0.18700
C 	C 	0.03940 0.04230 0.27720 0.14900
C 	C 	0.51740 0.37440 -0.00000 -0.05700
C 	C 	0.61640 0.41720 -0.00000 -0.02300
C 	C 	0.59660 0.53620 -0.00000 -0.04300
C 	C 	0.73580 0.33220 -0.00000 0.10800
C 	C 	0.48260 0.62560 -0.00000 -0.05400
C 	C 	0.38360 0.58280 -0.00000 -0.02700
C 	C 	0.40340 0.46380 -0.00000 -0.04300
C 	C 	0.26420 0.66780 -0.00000 0.10200
C 	C 	0.03060 0.50000 0.93880 0.31700
C 	C 	0.96940 0.50000 0.06120 0.10900
N 	N 	0.23756 0.97930 0.78188 -0.05900
N 	N 	0.16334 0.03700 0.87712 -0.12800
N 	N 	0.19834 0.12620 0.87552 -0.12100
N 	N 	0.29620 0.13260 0.77980 -0.08700
N 	N 	0.98056 0.02070 0.78188 -0.05600
N 	N 	0.95954 0.96300 0.87712 -0.08700
N 	N 	0.92614 0.87380 0.87552 -0.10800
N 	N 	0.92400 0.86740 0.77980 -0.06500
N 	N 	0.76244 0.02070 0.21812 -0.10400
N 	N 	0.83666 0.96300 0.12288 -0.14300
N 	N 	0.80166 0.87380 0.12448 -0.17400
N 	N 	0.70380 0.86740 0.22020 -0.10300
N 	N 	0.01944 0.97930 0.21812 -0.09000
N 	N 	0.04046 0.03700 0.12288 -0.20300
N 	N 	0.07386 0.12620 0.12448 -0.19600
N 	N 	0.07600 0.13260 0.22020 -0.12600
N 	N 	0.76730 0.21510 -0.00000 -0.11800
N 	N 	0.88610 0.17460 -0.00000 -0.17500
N 	N 	0.92040 0.26470 -0.00000 -0.15000
N 	N 	0.83130 0.36280 -0.00000 -0.11000
N 	N 	0.23270 0.78490 -0.00000 -0.11400
N 	N 	0.11390 0.82540 -0.00000 -0.19300
N 	N 	0.07960 0.73530 -0.00000 -0.19200
N 	N 	0.16870 0.63720 -0.00000 -0.12700
O 	O 	0.10648 0.40210 0.89064 -0.31000
O 	O 	0.00288 0.59790 0.89064 -0.32900
O 	O 	0.89352 0.59790 0.10936 -0.32500
O 	O 	0.99712 0.40210 0.10936 -0.30300
