data_crystal

_cell_length_a 6.74748
_cell_length_b 11.15010
_cell_length_c 11.15010
_cell_angle_alpha 102.87400
_cell_angle_beta  107.61200
_cell_angle_gamma 107.61200

_symmetry_space_group_name_	'P 1'
_symmetry_space_group_name_H-M	'P 1'

loop_
_symmetry_equiv_pos_as_xyz
  x,y,z

loop_
_atom_site_label
_atom_site_type_symbol
_atom_site_fract_x
_atom_site_fract_y
_atom_site_fract_z
_atom_site_charge
Ga	Ga	-0.00000 0.00000 -0.00000 1.98500
Ga	Ga	0.50000 0.00000 -0.00000 2.01500
H 	H 	0.23280 0.98700 0.61080 0.08000
H 	H 	0.10570 0.96830 0.37250 0.05400
H 	H 	0.86500 0.61080 0.98700 0.15100
H 	H 	0.73510 0.37250 0.96830 0.12800
H 	H 	0.76720 0.01300 0.38920 0.03900
H 	H 	0.89430 0.03170 0.62750 0.05800
H 	H 	0.13500 0.38920 0.01300 -0.03500
H 	H 	0.26490 0.62750 0.03170 -0.01500
C 	C 	0.33630 0.97383 0.55637 0.01400
C 	C 	0.27210 0.97345 0.42555 -0.00400
C 	C 	0.69390 0.55637 0.97383 0.03000
C 	C 	0.62690 0.42555 0.97345 0.01000
C 	C 	0.66370 0.02617 0.44363 -0.14900
C 	C 	0.72790 0.02655 0.57445 -0.12300
C 	C 	0.30610 0.44363 0.02617 -0.16100
C 	C 	0.37310 0.57445 0.02655 -0.13300
C 	C 	0.54140 0.96326 0.61954 0.03400
C 	C 	0.61000 0.96093 0.75907 0.57400
C 	C 	0.42120 0.97902 0.36338 0.04800
C 	C 	0.36080 0.99318 0.22842 0.52200
C 	C 	0.54140 0.61954 0.96326 0.02900
C 	C 	0.61000 0.75907 0.96093 0.55800
C 	C 	0.42120 0.36338 0.97902 0.04500
C 	C 	0.36080 0.22842 0.99318 0.51300
O 	O 	0.80284 0.95952 0.81216 -0.42200
O 	O 	0.50600 0.99911 0.17809 -0.50800
O 	O 	0.46884 0.81216 0.95952 -0.48500
O 	O 	0.17120 0.17809 0.99911 -0.56300
O 	O 	0.19716 0.04048 0.18784 -0.80100
O 	O 	0.49400 0.00089 0.82191 -0.71600
O 	O 	0.53116 0.18784 0.04048 -0.72500
O 	O 	0.82880 0.82191 0.00089 -0.63200
O 	O 	0.82340 0.07980 0.06700 -0.81100
O 	O 	0.17660 0.92020 0.93300 -0.60400
