data_crystal

_cell_length_a 4.91140
_cell_length_b 12.05910
_cell_length_c 19.16470
_cell_angle_alpha 90.00000
_cell_angle_beta  90.00000
_cell_angle_gamma 90.00000

_symmetry_space_group_name_	'P 1'
_symmetry_space_group_name_H-M	'P 1'

loop_
_symmetry_equiv_pos_as_xyz
  x,y,z

loop_
_atom_site_label
_atom_site_type_symbol
_atom_site_fract_x
_atom_site_fract_y
_atom_site_fract_z
_atom_site_charge
Al	Al	0.26630 0.75000 0.93766 2.39000
Al	Al	0.26630 0.75000 0.56234 2.38700
Al	Al	0.73370 0.25000 0.43766 2.39400
Al	Al	0.73370 0.25000 0.06234 2.39100
Al	Al	-0.00000 0.00000 -0.00000 2.34800
Al	Al	0.00000 0.50000 0.50000 2.37500
Al	Al	0.00000 0.00000 0.50000 2.36700
Al	Al	-0.00000 0.50000 -0.00000 2.35500
P 	P 	0.49760 0.98457 0.89529 0.66500
P 	P 	0.49760 0.51543 0.60471 0.51700
P 	P 	0.50240 0.01543 0.39529 0.38900
P 	P 	0.50240 0.48457 0.10471 0.53900
P 	P 	0.50240 0.01543 0.10471 0.38300
P 	P 	0.50240 0.48457 0.39529 0.54200
P 	P 	0.49760 0.98457 0.60471 0.67000
P 	P 	0.49760 0.51543 0.89529 0.51800
C 	C 	0.44080 0.05160 0.81242 -0.31000
C 	C 	0.44080 0.44840 0.68758 -0.14800
C 	C 	0.55920 0.94840 0.31242 0.21500
C 	C 	0.55920 0.55160 0.18758 0.01000
C 	C 	0.55920 0.94840 0.18758 0.20100
C 	C 	0.55920 0.55160 0.31242 0.02600
C 	C 	0.44080 0.05160 0.68758 -0.33000
C 	C 	0.44080 0.44840 0.81242 -0.13100
C 	C 	0.54860 0.98760 0.75000 0.33300
C 	C 	0.54860 0.51240 0.75000 0.13000
C 	C 	0.45140 0.01240 0.25000 -0.26700
C 	C 	0.45140 0.48760 0.25000 -0.05300
O 	O 	0.79970 0.99700 0.91467 -0.24100
O 	O 	0.46560 0.85760 0.88980 -0.66100
O 	O 	0.31720 0.04130 0.95080 -0.68000
O 	O 	0.79970 0.50300 0.58533 -0.35800
O 	O 	0.46560 0.64240 0.61020 -0.67200
O 	O 	0.31720 0.45870 0.54920 -0.73400
O 	O 	0.20030 0.00300 0.41467 -0.79200
O 	O 	0.53440 0.14240 0.38980 -0.67800
O 	O 	0.68280 0.95870 0.45080 -0.34900
O 	O 	0.20030 0.49700 0.08533 -0.82900
O 	O 	0.53440 0.35760 0.11020 -0.71600
O 	O 	0.68280 0.54130 0.04920 -0.59400
O 	O 	0.20030 0.00300 0.08533 -0.86900
O 	O 	0.53440 0.14240 0.11020 -0.70200
O 	O 	0.68280 0.95870 0.04920 -0.48500
O 	O 	0.20030 0.49700 0.41467 -0.75100
O 	O 	0.53440 0.35760 0.38980 -0.69200
O 	O 	0.68280 0.54130 0.45080 -0.45300
O 	O 	0.79970 0.99700 0.58533 -0.31900
O 	O 	0.46560 0.85760 0.61020 -0.68500
O 	O 	0.31720 0.04130 0.54920 -0.83600
O 	O 	0.79970 0.50300 0.91467 -0.27600
O 	O 	0.46560 0.64240 0.88980 -0.64800
O 	O 	0.31720 0.45870 0.95080 -0.58300
F 	F 	0.07370 0.85390 0.98650 -1.07300
F 	F 	0.07370 0.64610 0.51350 -1.21700
F 	F 	0.92630 0.14610 0.48650 -0.88300
F 	F 	0.92630 0.35390 0.01350 -0.97900
F 	F 	0.92630 0.14610 0.01350 -0.99800
F 	F 	0.92630 0.35390 0.48650 -0.86500
F 	F 	0.07370 0.85390 0.51350 -1.19300
F 	F 	0.07370 0.64610 0.98650 -1.09500
