data_crystal

_cell_length_a 6.63520
_cell_length_b 13.49430
_cell_length_c 16.24300
_cell_angle_alpha 90.00000
_cell_angle_beta  90.00000
_cell_angle_gamma 90.00000

_symmetry_space_group_name_	'P 1'
_symmetry_space_group_name_H-M	'P 1'

loop_
_symmetry_equiv_pos_as_xyz
  x,y,z

loop_
_atom_site_label
_atom_site_type_symbol
_atom_site_fract_x
_atom_site_fract_y
_atom_site_fract_z
_atom_site_charge
Al	Al	0.00066 0.00069 0.99972 2.36500
Al	Al	0.99396 0.50124 0.49926 2.41400
Al	Al	0.49480 0.00083 0.99984 2.36700
Al	Al	0.49431 0.50047 0.49959 2.41400
H 	H 	0.92219 0.80017 0.18582 0.11000
H 	H 	0.92201 0.69161 0.30639 0.06900
H 	H 	0.06915 0.30219 0.31392 0.02100
H 	H 	0.07262 0.19045 0.19532 0.01100
H 	H 	0.42214 0.20056 0.81254 -0.01000
H 	H 	0.42203 0.31016 0.69262 0.02800
H 	H 	0.56911 0.69726 0.68685 0.05000
H 	H 	0.57264 0.80916 0.80540 0.06600
H 	H 	0.07085 0.20027 0.81233 -0.03300
H 	H 	0.07077 0.31018 0.69234 0.01100
H 	H 	0.92045 0.69902 0.68869 0.06200
H 	H 	0.92389 0.81090 0.80731 0.08200
H 	H 	0.57086 0.80047 0.18609 0.10000
H 	H 	0.57079 0.69159 0.30672 0.05800
H 	H 	0.42045 0.30051 0.31209 0.03600
H 	H 	0.42384 0.18878 0.19341 0.02900
H 	H 	0.74340 0.61791 0.49741 0.44100
H 	H 	0.24341 0.38404 0.49709 0.40300
H 	H 	0.24730 0.11971 0.00203 0.53000
C 	C 	0.06495 0.77720 0.21149 0.00200
C 	C 	0.06482 0.71482 0.28099 0.03100
C 	C 	0.92714 0.27833 0.28811 0.02000
C 	C 	0.92918 0.21419 0.21978 0.02700
C 	C 	0.56495 0.22339 0.78679 -0.00300
C 	C 	0.56482 0.28648 0.71777 -0.02400
C 	C 	0.42712 0.72105 0.71270 0.02200
C 	C 	0.42916 0.78532 0.78101 0.00600
C 	C 	0.92809 0.22321 0.78664 0.02600
C 	C 	0.92798 0.28645 0.71760 -0.00300
C 	C 	0.06398 0.72200 0.71367 0.00700
C 	C 	0.06600 0.78627 0.78204 -0.01300
C 	C 	0.42811 0.77741 0.21167 0.01600
C 	C 	0.42801 0.71486 0.28118 0.04500
C 	C 	0.56392 0.27742 0.28714 0.00300
C 	C 	0.56595 0.21328 0.21874 0.00400
C 	C 	0.24632 0.81010 0.17582 -0.03000
C 	C 	0.24634 0.68271 0.31725 -0.10700
C 	C 	0.24604 0.88136 0.10438 0.49200
C 	C 	0.24548 0.61385 0.39026 0.52900
C 	C 	0.74469 0.31177 0.32259 -0.12900
C 	C 	0.74873 0.18124 0.18336 -0.13300
C 	C 	0.74345 0.38392 0.39330 0.51700
C 	C 	0.75045 0.11266 0.11028 0.50800
C 	C 	0.74633 0.18969 0.82200 -0.19800
C 	C 	0.74633 0.31880 0.68157 -0.13300
C 	C 	0.74606 0.11780 0.89300 0.50700
C 	C 	0.74547 0.38784 0.60863 0.50500
C 	C 	0.24465 0.68769 0.67806 -0.11400
C 	C 	0.24876 0.81858 0.81737 -0.08400
C 	C 	0.24353 0.61631 0.60670 0.52200
C 	C 	0.25043 0.88801 0.89014 0.49200
O 	O 	0.07414 0.91000 0.07492 -0.43100
O 	O 	0.07365 0.58533 0.41953 -0.66600
O 	O 	0.91473 0.41462 0.42151 -0.66600
O 	O 	0.92368 0.08391 0.08111 -0.65400
O 	O 	0.57284 0.08903 0.92225 -0.89100
O 	O 	0.57361 0.41636 0.57936 -0.67800
O 	O 	0.41468 0.58600 0.57814 -0.66700
O 	O 	0.42238 0.91662 0.91932 -0.61900
O 	O 	0.91857 0.08636 0.92056 -0.87100
O 	O 	0.91670 0.41696 0.57915 -0.66800
O 	O 	0.07195 0.58721 0.57771 -0.67500
O 	O 	0.07914 0.91680 0.91973 -0.63100
O 	O 	0.41722 0.91308 0.07699 -0.42400
O 	O 	0.41669 0.58471 0.41973 -0.65800
O 	O 	0.57195 0.41339 0.42194 -0.67500
O 	O 	0.57795 0.08429 0.08029 -0.66100
O 	O 	0.24736 0.05567 0.00101 -1.20900
O 	O 	0.74380 0.55406 0.49840 -1.16600
O 	O 	0.74765 0.96002 0.99935 -0.85900
O 	O 	0.24381 0.44786 0.49869 -1.16500
