data_crystal

_cell_length_a 13.96100
_cell_length_b 19.60100
_cell_length_c 22.64900
_cell_angle_alpha 90.00000
_cell_angle_beta  90.00000
_cell_angle_gamma 101.37400

_symmetry_space_group_name_	'P 1'
_symmetry_space_group_name_H-M	'P 1'

loop_
_symmetry_equiv_pos_as_xyz
  x,y,z

loop_
_atom_site_label
_atom_site_type_symbol
_atom_site_fract_x
_atom_site_fract_y
_atom_site_fract_z
_atom_site_charge
Zn	Zn	0.66325 0.33505 0.99029 1.21900
Zn	Zn	0.87773 0.36309 0.00913 1.21900
Zn	Zn	0.66325 0.83505 0.50971 1.21900
Zn	Zn	0.87773 0.86309 0.49087 1.21900
Zn	Zn	0.33675 0.16495 0.49029 1.22000
Zn	Zn	0.12227 0.13691 0.50913 1.22000
Zn	Zn	0.33675 0.66495 0.00971 1.22000
Zn	Zn	0.12227 0.63691 0.99087 1.22000
H 	H 	0.01310 0.28370 0.06510 0.00800
H 	H 	0.64250 0.69290 0.66490 0.05000
H 	H 	0.97450 0.61400 0.80780 0.07500
H 	H 	0.49570 0.30570 0.07370 0.00400
H 	H 	0.17670 0.27260 0.05930 0.08400
H 	H 	0.95480 0.53410 0.88750 0.04100
H 	H 	0.58830 0.65330 0.39280 0.03800
H 	H 	0.56960 0.57570 0.31680 0.08700
H 	H 	0.93180 0.76340 0.64610 0.05000
H 	H 	0.60510 0.43760 0.14500 0.04100
H 	H 	0.89160 0.50600 0.16370 0.04200
H 	H 	0.33220 0.30930 0.08000 0.09900
H 	H 	0.96610 0.70040 0.72460 0.08300
H 	H 	0.87610 0.70370 0.36010 0.04200
H 	H 	0.57390 0.49860 0.22690 0.09700
H 	H 	0.66390 0.50190 0.86970 0.04100
H 	H 	0.06260 0.44020 0.95570 0.01000
H 	H 	0.34130 0.37890 0.91730 0.09100
H 	H 	0.50480 0.37250 0.91270 -0.00100
H 	H 	0.22630 0.43550 0.94940 0.08600
H 	H 	0.01310 0.78370 0.43490 0.00800
H 	H 	0.64250 0.19290 0.83510 0.05000
H 	H 	0.97450 0.11400 0.69220 0.07500
H 	H 	0.49570 0.80570 0.42630 0.00400
H 	H 	0.17670 0.77260 0.44070 0.08400
H 	H 	0.95480 0.03410 0.61250 0.04100
H 	H 	0.58830 0.15330 0.10720 0.03800
H 	H 	0.56960 0.07570 0.18320 0.08700
H 	H 	0.93180 0.26340 0.85390 0.05000
H 	H 	0.60510 0.93760 0.35500 0.04100
H 	H 	0.89160 0.00600 0.33630 0.04200
H 	H 	0.33220 0.80930 0.42000 0.09900
H 	H 	0.96610 0.20040 0.77540 0.08300
H 	H 	0.87610 0.20370 0.13990 0.04200
H 	H 	0.57390 0.99860 0.27310 0.09700
H 	H 	0.66390 0.00190 0.63030 0.04100
H 	H 	0.06260 0.94020 0.54430 0.01000
H 	H 	0.34130 0.87890 0.58270 0.09000
H 	H 	0.50480 0.87250 0.58730 -0.00100
H 	H 	0.22630 0.93550 0.55060 0.08600
H 	H 	0.98690 0.21630 0.56510 0.00800
H 	H 	0.35750 0.80710 0.16490 0.05000
H 	H 	0.02550 0.88600 0.30780 0.07500
H 	H 	0.50430 0.19430 0.57370 0.00400
H 	H 	0.82330 0.22740 0.55930 0.08400
H 	H 	0.04520 0.96590 0.38750 0.04100
H 	H 	0.41170 0.84670 0.89280 0.03800
H 	H 	0.43040 0.92430 0.81680 0.08700
H 	H 	0.06820 0.73660 0.14610 0.05000
H 	H 	0.39490 0.06240 0.64500 0.04100
H 	H 	0.10840 0.99400 0.66370 0.04200
H 	H 	0.66780 0.19070 0.58000 0.09900
H 	H 	0.03390 0.79960 0.22460 0.08300
H 	H 	0.12390 0.79630 0.86010 0.04200
H 	H 	0.42610 0.00140 0.72690 0.09700
H 	H 	0.33610 0.99810 0.36970 0.04100
H 	H 	0.93740 0.05980 0.45570 0.01000
H 	H 	0.65870 0.12110 0.41730 0.09000
H 	H 	0.49520 0.12750 0.41270 -0.00100
H 	H 	0.77370 0.06450 0.44940 0.08600
H 	H 	0.98690 0.71630 0.93490 0.00800
H 	H 	0.35750 0.30710 0.33510 0.05000
H 	H 	0.02550 0.38600 0.19220 0.07500
H 	H 	0.50430 0.69430 0.92630 0.00400
H 	H 	0.82330 0.72740 0.94070 0.08400
H 	H 	0.04520 0.46590 0.11250 0.04100
H 	H 	0.41170 0.34670 0.60720 0.03800
H 	H 	0.43040 0.42430 0.68320 0.08700
H 	H 	0.06820 0.23660 0.35390 0.05000
H 	H 	0.39490 0.56240 0.85500 0.04100
H 	H 	0.10840 0.49400 0.83630 0.04200
H 	H 	0.66780 0.69070 0.92000 0.09900
H 	H 	0.03390 0.29960 0.27540 0.08300
H 	H 	0.12390 0.29630 0.63990 0.04200
H 	H 	0.42610 0.50140 0.77310 0.09700
H 	H 	0.33610 0.49810 0.13030 0.04100
H 	H 	0.93740 0.55980 0.04430 0.01000
H 	H 	0.65870 0.62110 0.08270 0.09100
H 	H 	0.49520 0.62750 0.08730 -0.00100
H 	H 	0.77370 0.56450 0.05060 0.08600
C 	C 	0.79970 0.45500 0.93090 0.38200
C 	C 	0.32140 0.34880 0.00230 0.08500
C 	C 	0.82860 0.60840 0.79280 0.04000
C 	C 	0.73660 0.57180 0.81300 -0.07100
C 	C 	0.82450 0.65240 0.74420 0.03700
C 	C 	0.21710 0.35510 0.00390 0.06000
C 	C 	0.73490 0.68650 0.38470 -0.10800
C 	C 	0.05600 0.31330 0.04060 0.07700
C 	C 	0.71140 0.59090 0.29300 0.04200
C 	C 	0.72700 0.65230 0.72530 -0.06500
C 	C 	0.70660 0.69320 0.67630 0.03300
C 	C 	0.78320 0.73280 0.64660 -0.09800
C 	C 	0.91230 0.59270 0.82030 -0.09300
C 	C 	0.74690 0.74220 0.43080 0.36800
C 	C 	0.80300 0.62790 0.31020 -0.06500
C 	C 	0.46530 0.32090 0.04100 0.10100
C 	C 	0.80910 0.54680 0.22180 -0.07100
C 	C 	0.15430 0.30720 0.03850 -0.12500
C 	C 	0.90000 0.54330 0.86810 0.03600
C 	C 	0.76730 0.42420 0.09310 0.36400
C 	C 	0.64240 0.64740 0.37090 0.04900
C 	C 	0.63140 0.60100 0.32580 -0.10600
C 	C 	0.80780 0.50930 0.88560 -0.11400
C 	C 	0.75090 0.46780 0.14480 -0.11700
C 	C 	0.71200 0.54350 0.24190 0.05100
C 	C 	0.88070 0.73510 0.66610 0.04000
C 	C 	0.65690 0.46510 0.16500 0.05200
C 	C 	0.82770 0.50660 0.17480 0.04000
C 	C 	0.36630 0.32450 0.04560 -0.15400
C 	C 	0.90150 0.69730 0.71280 -0.08900
C 	C 	0.81470 0.67680 0.35260 0.04000
C 	C 	0.63780 0.50210 0.21360 -0.11800
C 	C 	0.76410 0.77390 0.59430 0.36600
C 	C 	0.72600 0.52420 0.85780 0.04300
C 	C 	0.08570 0.40580 0.97650 0.08600
C 	C 	0.37220 0.36490 0.95020 -0.14800
C 	C 	0.47070 0.35990 0.94760 0.09600
C 	C 	0.18430 0.40390 0.97270 -0.13300
C 	C 	0.79970 0.95500 0.56910 0.38200
C 	C 	0.32140 0.84880 0.49770 0.08400
C 	C 	0.82860 0.10840 0.70720 0.04000
C 	C 	0.73660 0.07180 0.68700 -0.07100
C 	C 	0.82450 0.15240 0.75580 0.03700
C 	C 	0.21710 0.85510 0.49610 0.05900
C 	C 	0.73490 0.18650 0.11530 -0.10800
C 	C 	0.05600 0.81330 0.45940 0.07600
C 	C 	0.71140 0.09090 0.20700 0.04200
C 	C 	0.72700 0.15230 0.77470 -0.06500
C 	C 	0.70660 0.19320 0.82370 0.03300
C 	C 	0.78320 0.23280 0.85340 -0.09800
C 	C 	0.91230 0.09270 0.67970 -0.09300
C 	C 	0.74690 0.24220 0.06920 0.36800
C 	C 	0.80300 0.12790 0.18980 -0.06500
C 	C 	0.46530 0.82090 0.45900 0.10000
C 	C 	0.80910 0.04680 0.27820 -0.07100
C 	C 	0.15430 0.80720 0.46150 -0.12500
C 	C 	0.90000 0.04330 0.63190 0.03600
C 	C 	0.76730 0.92420 0.40690 0.36400
C 	C 	0.64240 0.14740 0.12910 0.04900
C 	C 	0.63140 0.10100 0.17420 -0.10600
C 	C 	0.80780 0.00930 0.61440 -0.11400
C 	C 	0.75090 0.96780 0.35520 -0.11700
C 	C 	0.71200 0.04350 0.25810 0.05100
C 	C 	0.88070 0.23510 0.83390 0.04000
C 	C 	0.65690 0.96510 0.33500 0.05200
C 	C 	0.82770 0.00660 0.32520 0.04000
C 	C 	0.36630 0.82450 0.45440 -0.15300
C 	C 	0.90150 0.19730 0.78720 -0.08800
C 	C 	0.81470 0.17680 0.14740 0.04000
C 	C 	0.63780 0.00210 0.28640 -0.11800
C 	C 	0.76410 0.27390 0.90570 0.36600
C 	C 	0.72600 0.02420 0.64220 0.04300
C 	C 	0.08570 0.90580 0.52350 0.08700
C 	C 	0.37220 0.86490 0.54980 -0.14700
C 	C 	0.47070 0.85990 0.55240 0.09500
C 	C 	0.18430 0.90390 0.52730 -0.13200
C 	C 	0.20030 0.04500 0.43090 0.38200
C 	C 	0.67860 0.15120 0.50230 0.08400
C 	C 	0.17140 0.89160 0.29280 0.04000
C 	C 	0.26340 0.92820 0.31300 -0.07100
C 	C 	0.17550 0.84760 0.24420 0.03700
C 	C 	0.78290 0.14490 0.50390 0.05900
C 	C 	0.26510 0.81350 0.88470 -0.10800
C 	C 	0.94400 0.18670 0.54060 0.07600
C 	C 	0.28860 0.90910 0.79300 0.04200
C 	C 	0.27300 0.84770 0.22530 -0.06500
C 	C 	0.29340 0.80680 0.17630 0.03300
C 	C 	0.21680 0.76720 0.14660 -0.09800
C 	C 	0.08770 0.90730 0.32030 -0.09300
C 	C 	0.25310 0.75780 0.93080 0.36800
C 	C 	0.19700 0.87210 0.81020 -0.06500
C 	C 	0.53470 0.17910 0.54100 0.10000
C 	C 	0.19090 0.95320 0.72180 -0.07100
C 	C 	0.84570 0.19280 0.53850 -0.12500
C 	C 	0.10000 0.95670 0.36810 0.03600
C 	C 	0.23270 0.07580 0.59310 0.36400
C 	C 	0.35760 0.85260 0.87090 0.04900
C 	C 	0.36860 0.89900 0.82580 -0.10600
C 	C 	0.19220 0.99070 0.38560 -0.11400
C 	C 	0.24910 0.03220 0.64480 -0.11700
C 	C 	0.28800 0.95650 0.74190 0.05100
C 	C 	0.11930 0.76490 0.16610 0.04000
C 	C 	0.34310 0.03490 0.66500 0.05200
C 	C 	0.17230 0.99340 0.67480 0.04000
C 	C 	0.63370 0.17550 0.54560 -0.15300
C 	C 	0.09850 0.80270 0.21280 -0.08800
C 	C 	0.18530 0.82320 0.85260 0.04000
C 	C 	0.36220 0.99790 0.71360 -0.11800
C 	C 	0.23590 0.72610 0.09430 0.36600
C 	C 	0.27400 0.97580 0.35780 0.04300
C 	C 	0.91430 0.09420 0.47650 0.08700
C 	C 	0.62780 0.13510 0.45020 -0.14700
C 	C 	0.52930 0.14010 0.44760 0.09500
C 	C 	0.81570 0.09610 0.47270 -0.13200
C 	C 	0.20030 0.54500 0.06910 0.38200
C 	C 	0.67860 0.65120 0.99770 0.08500
C 	C 	0.17140 0.39160 0.20720 0.04000
C 	C 	0.26340 0.42820 0.18700 -0.07100
C 	C 	0.17550 0.34760 0.25580 0.03700
C 	C 	0.78290 0.64490 0.99610 0.06000
C 	C 	0.26510 0.31350 0.61530 -0.10800
C 	C 	0.94400 0.68670 0.95940 0.07700
C 	C 	0.28860 0.40910 0.70700 0.04200
C 	C 	0.27300 0.34770 0.27470 -0.06500
C 	C 	0.29340 0.30680 0.32370 0.03300
C 	C 	0.21680 0.26720 0.35340 -0.09800
C 	C 	0.08770 0.40730 0.17970 -0.09300
C 	C 	0.25310 0.25780 0.56920 0.36800
C 	C 	0.19700 0.37210 0.68980 -0.06500
C 	C 	0.53470 0.67910 0.95900 0.10100
C 	C 	0.19090 0.45320 0.77820 -0.07100
C 	C 	0.84570 0.69280 0.96150 -0.12500
C 	C 	0.10000 0.45670 0.13190 0.03600
C 	C 	0.23270 0.57580 0.90690 0.36400
C 	C 	0.35760 0.35260 0.62910 0.04900
C 	C 	0.36860 0.39900 0.67420 -0.10600
C 	C 	0.19220 0.49070 0.11440 -0.11400
C 	C 	0.24910 0.53220 0.85520 -0.11700
C 	C 	0.28800 0.45650 0.75810 0.05100
C 	C 	0.11930 0.26490 0.33390 0.04000
C 	C 	0.34310 0.53490 0.83500 0.05200
C 	C 	0.17230 0.49340 0.82520 0.04000
C 	C 	0.63370 0.67550 0.95440 -0.15400
C 	C 	0.09850 0.30270 0.28720 -0.08900
C 	C 	0.18530 0.32320 0.64740 0.04000
C 	C 	0.36220 0.49790 0.78640 -0.11800
C 	C 	0.23590 0.22610 0.40570 0.36600
C 	C 	0.27400 0.47580 0.14220 0.04300
C 	C 	0.91430 0.59420 0.02350 0.08600
C 	C 	0.62780 0.63510 0.04980 -0.14800
C 	C 	0.52930 0.64010 0.05240 0.09600
C 	C 	0.81570 0.59610 0.02730 -0.13300
S 	S 	0.64341 0.59638 0.76880 0.32600
S 	S 	0.89380 0.60637 0.26281 0.29700
S 	S 	0.64341 0.09638 0.73120 0.32600
S 	S 	0.89380 0.10637 0.23719 0.29700
S 	S 	0.35659 0.90362 0.26880 0.32600
S 	S 	0.10620 0.89363 0.76281 0.29700
S 	S 	0.35659 0.40362 0.23120 0.32600
S 	S 	0.10620 0.39363 0.73719 0.29700
N 	N 	0.02230 0.36070 0.00830 -0.24800
N 	N 	0.51800 0.33810 0.99270 -0.25300
N 	N 	0.02230 0.86070 0.49170 -0.24900
N 	N 	0.51800 0.83810 0.50730 -0.25300
N 	N 	0.97770 0.13930 0.50830 -0.24900
N 	N 	0.48200 0.16190 0.49270 -0.25300
N 	N 	0.97770 0.63930 0.99170 -0.24800
N 	N 	0.48200 0.66190 0.00730 -0.25300
O 	O 	0.67030 0.75110 0.45930 -0.43600
O 	O 	0.85810 0.42560 0.07790 -0.43100
O 	O 	0.71180 0.42320 0.94380 -0.45200
O 	O 	0.83110 0.78080 0.43930 -0.45700
O 	O 	0.87580 0.44140 0.95310 -0.46000
O 	O 	0.69420 0.39260 0.06580 -0.46100
O 	O 	0.67700 0.77940 0.58250 -0.43500
O 	O 	0.83870 0.79940 0.56260 -0.45200
O 	O 	0.95790 0.56860 0.29800 -0.19600
O 	O 	0.58440 0.63280 0.80250 -0.22700
O 	O 	0.59790 0.53630 0.73400 -0.22000
O 	O 	0.93600 0.66640 0.22680 -0.21500
O 	O 	0.67030 0.25110 0.04070 -0.43600
O 	O 	0.85810 0.92560 0.42210 -0.43100
O 	O 	0.71180 0.92320 0.55620 -0.45300
O 	O 	0.83110 0.28080 0.06070 -0.45700
O 	O 	0.87580 0.94140 0.54690 -0.46000
O 	O 	0.69420 0.89260 0.43420 -0.46100
O 	O 	0.67700 0.27940 0.91750 -0.43400
O 	O 	0.83870 0.29940 0.93740 -0.45200
O 	O 	0.95790 0.06860 0.20200 -0.19500
O 	O 	0.58440 0.13280 0.69750 -0.22700
O 	O 	0.59790 0.03630 0.76600 -0.22000
O 	O 	0.93600 0.16640 0.27320 -0.21400
O 	O 	0.32970 0.74890 0.95930 -0.43600
O 	O 	0.14190 0.07440 0.57790 -0.43100
O 	O 	0.28820 0.07680 0.44380 -0.45300
O 	O 	0.16890 0.71920 0.93930 -0.45700
O 	O 	0.12420 0.05860 0.45310 -0.46000
O 	O 	0.30580 0.10740 0.56580 -0.46100
O 	O 	0.32300 0.72060 0.08250 -0.43400
O 	O 	0.16130 0.70060 0.06260 -0.45200
O 	O 	0.04210 0.93140 0.79800 -0.19500
O 	O 	0.41560 0.86720 0.30250 -0.22700
O 	O 	0.40210 0.96370 0.23400 -0.22000
O 	O 	0.06400 0.83360 0.72680 -0.21400
O 	O 	0.32970 0.24890 0.54070 -0.43600
O 	O 	0.14190 0.57440 0.92210 -0.43100
O 	O 	0.28820 0.57680 0.05620 -0.45200
O 	O 	0.16890 0.21920 0.56070 -0.45700
O 	O 	0.12420 0.55860 0.04690 -0.46000
O 	O 	0.30580 0.60740 0.93420 -0.46100
O 	O 	0.32300 0.22060 0.41750 -0.43500
O 	O 	0.16130 0.20060 0.43740 -0.45200
O 	O 	0.04210 0.43140 0.70200 -0.19600
O 	O 	0.41560 0.36720 0.19750 -0.22700
O 	O 	0.40210 0.46370 0.26600 -0.22000
O 	O 	0.06400 0.33360 0.77320 -0.21500
