data_crystal

_cell_length_a 13.89900
_cell_length_b 14.86760
_cell_length_c 14.86760
_cell_angle_alpha 117.79200
_cell_angle_beta  98.19290
_cell_angle_gamma 98.19290

_symmetry_space_group_name_	'P 1'
_symmetry_space_group_name_H-M	'P 1'

loop_
_symmetry_equiv_pos_as_xyz
  x,y,z

loop_
_atom_site_label
_atom_site_type_symbol
_atom_site_fract_x
_atom_site_fract_y
_atom_site_fract_z
_atom_site_charge
Zn	Zn	0.13907 0.62205 0.32599 1.21700
Zn	Zn	0.36093 0.67401 0.37795 1.21700
Zn	Zn	0.86093 0.37795 0.67401 1.21700
Zn	Zn	0.63907 0.32599 0.62205 1.21700
H 	H 	0.38370 0.65860 0.07160 0.05900
H 	H 	0.99510 0.59810 0.44610 -0.00300
H 	H 	0.96490 0.66070 0.21910 -0.00300
H 	H 	0.83740 0.61010 0.46190 0.08800
H 	H 	0.39990 0.67660 0.89380 0.07400
H 	H 	0.04930 0.62290 0.80410 0.06800
H 	H 	0.80380 0.67190 0.22510 0.08400
H 	H 	0.39960 0.71200 0.72420 0.06100
H 	H 	0.11630 0.92840 0.34140 0.05900
H 	H 	0.50490 0.55390 0.40190 -0.00300
H 	H 	0.53510 0.78090 0.33930 -0.00300
H 	H 	0.66260 0.53810 0.38990 0.08800
H 	H 	0.10010 0.10620 0.32340 0.07400
H 	H 	0.45070 0.19590 0.37710 0.06800
H 	H 	0.69620 0.77490 0.32810 0.08400
H 	H 	0.10040 0.27580 0.28800 0.06100
H 	H 	0.61630 0.34140 0.92840 0.05900
H 	H 	0.00490 0.40190 0.55390 -0.00300
H 	H 	0.03510 0.33930 0.78090 -0.00300
H 	H 	0.16260 0.38990 0.53810 0.08800
H 	H 	0.60010 0.32340 0.10620 0.07400
H 	H 	0.95070 0.37710 0.19590 0.06800
H 	H 	0.19620 0.32810 0.77490 0.08400
H 	H 	0.60040 0.28800 0.27580 0.06100
H 	H 	0.88370 0.07160 0.65860 0.05900
H 	H 	0.49510 0.44610 0.59810 -0.00300
H 	H 	0.46490 0.21910 0.66070 -0.00300
H 	H 	0.33740 0.46190 0.61010 0.08800
H 	H 	0.89990 0.89380 0.67660 0.07400
H 	H 	0.54930 0.80410 0.62290 0.06800
H 	H 	0.30380 0.22510 0.67190 0.08400
H 	H 	0.89960 0.72420 0.71200 0.06100
C 	C 	0.22570 0.61840 0.06660 -0.08200
C 	C 	0.31710 0.64550 0.03870 -0.04000
C 	C 	0.95590 0.61360 0.40140 0.09400
C 	C 	0.80180 0.64441 0.34659 0.06500
C 	C 	0.93810 0.64990 0.26810 0.09200
C 	C 	0.26950 0.64580 0.93640 0.04000
C 	C 	0.17910 0.65180 0.76360 0.00300
C 	C 	0.26000 0.67861 0.63579 -0.08100
C 	C 	0.22870 0.61234 0.16386 0.38600
C 	C 	0.16730 0.62850 0.90810 0.00000
C 	C 	0.86170 0.62080 0.41180 -0.14600
C 	C 	0.33070 0.66600 0.87600 -0.10600
C 	C 	0.33300 0.68620 0.71380 -0.04900
C 	C 	0.11830 0.63250 0.82150 -0.07400
C 	C 	0.84180 0.65780 0.27160 -0.14200
C 	C 	0.28210 0.66930 0.78770 0.04000
C 	C 	0.27180 0.68423 0.54057 0.38300
C 	C 	0.27430 0.93340 0.38160 -0.08200
C 	C 	0.18290 0.96130 0.35450 -0.04000
C 	C 	0.54410 0.59860 0.38640 0.09400
C 	C 	0.69820 0.65341 0.35559 0.06500
C 	C 	0.56190 0.73190 0.35010 0.09200
C 	C 	0.23050 0.06360 0.35420 0.04000
C 	C 	0.32090 0.23640 0.34820 0.00300
C 	C 	0.24000 0.36421 0.32139 -0.08100
C 	C 	0.27130 0.83614 0.38766 0.38600
C 	C 	0.33270 0.09190 0.37150 0.00000
C 	C 	0.63830 0.58820 0.37920 -0.14600
C 	C 	0.16930 0.12400 0.33400 -0.10600
C 	C 	0.16700 0.28620 0.31380 -0.04900
C 	C 	0.38170 0.17850 0.36750 -0.07400
C 	C 	0.65820 0.72840 0.34220 -0.14200
C 	C 	0.21790 0.21230 0.33070 0.04000
C 	C 	0.22820 0.45943 0.31577 0.38300
C 	C 	0.77430 0.38160 0.93340 -0.08200
C 	C 	0.68290 0.35450 0.96130 -0.04000
C 	C 	0.04410 0.38640 0.59860 0.09400
C 	C 	0.19820 0.35559 0.65341 0.06500
C 	C 	0.06190 0.35010 0.73190 0.09200
C 	C 	0.73050 0.35420 0.06360 0.04000
C 	C 	0.82090 0.34820 0.23640 0.00300
C 	C 	0.74000 0.32139 0.36421 -0.08100
C 	C 	0.77130 0.38766 0.83614 0.38600
C 	C 	0.83270 0.37150 0.09190 0.00000
C 	C 	0.13830 0.37920 0.58820 -0.14600
C 	C 	0.66930 0.33400 0.12400 -0.10600
C 	C 	0.66700 0.31380 0.28620 -0.04900
C 	C 	0.88170 0.36750 0.17850 -0.07400
C 	C 	0.15820 0.34220 0.72840 -0.14200
C 	C 	0.71790 0.33070 0.21230 0.04000
C 	C 	0.72820 0.31577 0.45943 0.38300
C 	C 	0.72570 0.06660 0.61840 -0.08200
C 	C 	0.81710 0.03870 0.64550 -0.04000
C 	C 	0.45590 0.40140 0.61360 0.09400
C 	C 	0.30180 0.34659 0.64441 0.06500
C 	C 	0.43810 0.26810 0.64990 0.09200
C 	C 	0.76950 0.93640 0.64580 0.04000
C 	C 	0.67910 0.76360 0.65180 0.00300
C 	C 	0.76000 0.63579 0.67861 -0.08100
C 	C 	0.72870 0.16386 0.61234 0.38600
C 	C 	0.66730 0.90810 0.62850 0.00000
C 	C 	0.36170 0.41180 0.62080 -0.14600
C 	C 	0.83070 0.87600 0.66600 -0.10600
C 	C 	0.83300 0.71380 0.68620 -0.04900
C 	C 	0.61830 0.82150 0.63250 -0.07400
C 	C 	0.34180 0.27160 0.65780 -0.14200
C 	C 	0.78210 0.78770 0.66930 0.04000
C 	C 	0.77180 0.54057 0.68423 0.38300
S 	S 	0.13515 0.65575 0.64915 0.02300
S 	S 	0.10734 0.60144 0.99136 0.03600
S 	S 	0.36485 0.35085 0.34425 0.02300
S 	S 	0.39266 0.00864 0.39856 0.03600
S 	S 	0.86485 0.34425 0.35085 0.02300
S 	S 	0.89266 0.39856 0.00864 0.03600
S 	S 	0.63515 0.64915 0.65575 0.02300
S 	S 	0.60734 0.99136 0.60144 0.03600
N 	N 	0.99610 0.62731 0.33089 -0.25900
N 	N 	0.50390 0.66911 0.37269 -0.25900
N 	N 	0.00390 0.37269 0.66911 -0.25900
N 	N 	0.49610 0.33089 0.62731 -0.25900
O 	O 	0.35790 0.69981 0.52619 -0.44400
O 	O 	0.14590 0.58828 0.18072 -0.45800
O 	O 	0.19140 0.66961 0.48039 -0.47200
O 	O 	0.31340 0.63689 0.22271 -0.45400
O 	O 	0.14210 0.47381 0.30019 -0.44400
O 	O 	0.35410 0.81928 0.41172 -0.45800
O 	O 	0.30860 0.51961 0.33039 -0.47200
O 	O 	0.18660 0.77729 0.36311 -0.45400
O 	O 	0.64210 0.30019 0.47381 -0.44400
O 	O 	0.85410 0.41172 0.81928 -0.45800
O 	O 	0.80860 0.33039 0.51961 -0.47200
O 	O 	0.68660 0.36311 0.77729 -0.45400
O 	O 	0.85790 0.52619 0.69981 -0.44400
O 	O 	0.64590 0.18072 0.58828 -0.45800
O 	O 	0.69140 0.48039 0.66961 -0.47200
O 	O 	0.81340 0.22271 0.63689 -0.45400
