data_crystal

_cell_length_a 8.74100
_cell_length_b 14.79600
_cell_length_c 19.34000
_cell_angle_alpha 90.00000
_cell_angle_beta  90.00000
_cell_angle_gamma 90.00000

_symmetry_space_group_name_	'P 1'
_symmetry_space_group_name_H-M	'P 1'

loop_
_symmetry_equiv_pos_as_xyz
  x,y,z

loop_
_atom_site_label
_atom_site_type_symbol
_atom_site_fract_x
_atom_site_fract_y
_atom_site_fract_z
_atom_site_charge
Zn	Zn	0.36854 0.04448 0.92670 1.21200
Zn	Zn	0.13146 0.95552 0.42670 1.21300
Zn	Zn	0.63146 0.54448 0.57330 1.21300
Zn	Zn	0.86854 0.45552 0.07330 1.21200
H 	H 	0.69630 0.86590 0.50040 0.10700
H 	H 	0.15570 0.02880 0.69130 0.13000
H 	H 	0.73730 0.71210 0.49950 -0.00800
H 	H 	0.83270 0.11660 0.58020 0.17700
H 	H 	0.77810 0.02160 0.60600 0.18000
H 	H 	0.15880 0.04930 0.80830 -0.03500
H 	H 	0.37430 0.82690 0.64420 0.11800
H 	H 	0.41850 0.67790 0.63870 -0.03300
H 	H 	0.58990 0.98600 0.81980 -0.02800
H 	H 	0.60570 0.96540 0.70230 0.11600
H 	H 	0.29500 0.99900 0.59500 0.16300
H 	H 	0.68900 0.07400 0.46700 0.00500
H 	H 	0.80370 0.13410 0.00040 0.10700
H 	H 	0.34430 0.97120 0.19130 0.13000
H 	H 	0.76270 0.28790 0.99950 -0.00800
H 	H 	0.66730 0.88340 0.08020 0.17500
H 	H 	0.72190 0.97840 0.10600 0.17800
H 	H 	0.34120 0.95070 0.30830 -0.03500
H 	H 	0.12570 0.17310 0.14420 0.11700
H 	H 	0.08150 0.32210 0.13870 -0.03300
H 	H 	0.91010 0.01400 0.31980 -0.02800
H 	H 	0.89430 0.03460 0.20230 0.11600
H 	H 	0.20500 0.00100 0.09500 0.16300
H 	H 	0.81100 0.92600 0.96700 0.00900
H 	H 	0.30370 0.36590 0.99960 0.10500
H 	H 	0.84430 0.52880 0.80870 0.12900
H 	H 	0.26270 0.21210 0.00050 -0.00500
H 	H 	0.16730 0.61660 0.91980 0.17600
H 	H 	0.22190 0.52160 0.89400 0.17900
H 	H 	0.84120 0.54930 0.69170 -0.03400
H 	H 	0.62570 0.32690 0.85580 0.11700
H 	H 	0.58150 0.17790 0.86130 -0.03300
H 	H 	0.41010 0.48600 0.68020 -0.02700
H 	H 	0.39430 0.46540 0.79770 0.11400
H 	H 	0.70500 0.49900 0.90500 0.16300
H 	H 	0.31100 0.57400 0.03300 0.00600
H 	H 	0.19630 0.63410 0.49960 0.10700
H 	H 	0.65570 0.47120 0.30870 0.12900
H 	H 	0.23730 0.78790 0.50050 -0.00800
H 	H 	0.33270 0.38340 0.41980 0.17700
H 	H 	0.27810 0.47840 0.39400 0.18100
H 	H 	0.65880 0.45070 0.19170 -0.03400
H 	H 	0.87430 0.67310 0.35580 0.11800
H 	H 	0.91850 0.82210 0.36130 -0.03300
H 	H 	0.08990 0.51400 0.18020 -0.02700
H 	H 	0.10570 0.53460 0.29770 0.11500
H 	H 	0.79500 0.50100 0.40500 0.16300
H 	H 	0.18900 0.42600 0.53300 0.00400
C 	C 	0.68240 0.05840 0.51670 0.16100
C 	C 	0.38250 0.99790 0.68250 0.21600
C 	C 	0.55160 0.01520 0.52100 -0.11100
C 	C 	0.53170 0.86530 0.57330 0.18500
C 	C 	0.63950 0.82870 0.52940 -0.20200
C 	C 	0.24580 0.02090 0.71610 -0.24700
C 	C 	0.66280 0.73520 0.52900 0.10800
C 	C 	0.80930 0.05550 0.56550 -0.47000
C 	C 	0.95190 0.01330 0.53600 0.44000
C 	C 	0.24860 0.03140 0.78650 0.14400
C 	C 	0.44890 0.80510 0.61430 -0.21200
C 	C 	0.47650 0.71570 0.61060 0.11500
C 	C 	0.50260 0.99450 0.79310 0.12500
C 	C 	0.51390 0.98280 0.72270 -0.22800
C 	C 	0.43290 0.01820 0.46470 0.35000
C 	C 	0.81760 0.94160 0.01670 0.15400
C 	C 	0.11750 0.00210 0.18250 0.21700
C 	C 	0.94840 0.98480 0.02100 -0.11300
C 	C 	0.96830 0.13470 0.07330 0.18300
C 	C 	0.86050 0.17130 0.02940 -0.20100
C 	C 	0.25420 0.97910 0.21610 -0.24800
C 	C 	0.83720 0.26480 0.02900 0.10700
C 	C 	0.69070 0.94450 0.06550 -0.46400
C 	C 	0.54810 0.98670 0.03600 0.43400
C 	C 	0.25140 0.96860 0.28650 0.14400
C 	C 	0.05110 0.19490 0.11430 -0.21000
C 	C 	0.02350 0.28430 0.11060 0.11600
C 	C 	0.99740 0.00550 0.29310 0.12400
C 	C 	0.98610 0.01720 0.22270 -0.22900
C 	C 	0.06710 0.98180 0.96470 0.35400
C 	C 	0.31760 0.55840 0.98330 0.15800
C 	C 	0.61750 0.49790 0.81750 0.21300
C 	C 	0.44840 0.51520 0.97900 -0.11000
C 	C 	0.46830 0.36530 0.92670 0.18400
C 	C 	0.36050 0.32870 0.97060 -0.19900
C 	C 	0.75420 0.52090 0.78390 -0.24400
C 	C 	0.33720 0.23520 0.97100 0.10300
C 	C 	0.19070 0.55550 0.93450 -0.46600
C 	C 	0.04810 0.51330 0.96400 0.43500
C 	C 	0.75140 0.53140 0.71350 0.14300
C 	C 	0.55110 0.30510 0.88570 -0.21100
C 	C 	0.52350 0.21570 0.88940 0.11500
C 	C 	0.49740 0.49450 0.70690 0.12200
C 	C 	0.48610 0.48280 0.77730 -0.22600
C 	C 	0.56710 0.51820 0.03530 0.35000
C 	C 	0.18240 0.44160 0.48330 0.16100
C 	C 	0.88250 0.50210 0.31750 0.21200
C 	C 	0.05160 0.48480 0.47900 -0.11100
C 	C 	0.03170 0.63470 0.42670 0.18500
C 	C 	0.13950 0.67130 0.47060 -0.20200
C 	C 	0.74580 0.47910 0.28390 -0.24400
C 	C 	0.16280 0.76480 0.47100 0.10800
C 	C 	0.30930 0.44450 0.43450 -0.47000
C 	C 	0.45190 0.48670 0.46400 0.44100
C 	C 	0.74860 0.46860 0.21350 0.14200
C 	C 	0.94890 0.69490 0.38570 -0.21200
C 	C 	0.97650 0.78430 0.38940 0.11500
C 	C 	0.00260 0.50550 0.20690 0.12300
C 	C 	0.01390 0.51720 0.27730 -0.22600
C 	C 	0.93290 0.48180 0.53530 0.35100
N 	N 	0.37940 0.98850 0.61260 -0.21200
N 	N 	0.51160 0.95720 0.57830 -0.08500
N 	N 	0.58410 0.67640 0.56860 -0.28500
N 	N 	0.37170 0.01760 0.82550 -0.29900
N 	N 	0.12060 0.01150 0.11260 -0.21200
N 	N 	0.98840 0.04280 0.07830 -0.08400
N 	N 	0.91590 0.32360 0.06860 -0.28600
N 	N 	0.12830 0.98240 0.32550 -0.29800
N 	N 	0.62060 0.48850 0.88740 -0.21200
N 	N 	0.48840 0.45720 0.92170 -0.08500
N 	N 	0.41590 0.17640 0.93140 -0.28400
N 	N 	0.62830 0.51760 0.67450 -0.29800
N 	N 	0.87940 0.51150 0.38740 -0.21200
N 	N 	0.01160 0.54280 0.42170 -0.08500
N 	N 	0.08410 0.82360 0.43140 -0.28500
N 	N 	0.87170 0.48240 0.17450 -0.29800
O 	O 	0.96770 0.02350 0.47030 -0.48700
O 	O 	0.04510 0.97340 0.57280 -0.35200
O 	O 	0.44440 0.07130 0.41500 -0.29500
O 	O 	0.32570 0.96040 0.47250 -0.46200
O 	O 	0.53230 0.97650 0.97030 -0.48300
O 	O 	0.45490 0.02660 0.07280 -0.34800
O 	O 	0.05560 0.92870 0.91500 -0.29600
O 	O 	0.17430 0.03960 0.97250 -0.46600
O 	O 	0.03230 0.52350 0.02970 -0.48400
O 	O 	0.95490 0.47340 0.92720 -0.34900
O 	O 	0.55560 0.57130 0.08500 -0.29500
O 	O 	0.67430 0.46040 0.02750 -0.46300
O 	O 	0.46770 0.47650 0.52970 -0.48700
O 	O 	0.54510 0.52660 0.42720 -0.35200
O 	O 	0.94440 0.42870 0.58500 -0.29500
O 	O 	0.82570 0.53960 0.52750 -0.46300
