data_crystal

_cell_length_a 10.91800
_cell_length_b 17.12530
_cell_length_c 17.20920
_cell_angle_alpha 90.00000
_cell_angle_beta  90.00000
_cell_angle_gamma 90.00000

_symmetry_space_group_name_	'P 1'
_symmetry_space_group_name_H-M	'P 1'

loop_
_symmetry_equiv_pos_as_xyz
  x,y,z

loop_
_atom_site_label
_atom_site_type_symbol
_atom_site_fract_x
_atom_site_fract_y
_atom_site_fract_z
_atom_site_charge
Zn	Zn	0.17638 0.21634 0.49598 1.23000
Zn	Zn	0.55529 0.64785 0.93331 1.22200
Zn	Zn	0.66522 0.59836 0.11031 1.20200
Zn	Zn	0.28626 0.60415 0.00973 1.20900
Zn	Zn	0.32362 0.78366 0.99598 1.23000
Zn	Zn	0.94471 0.35215 0.43331 1.22300
Zn	Zn	0.83478 0.40164 0.61031 1.20400
Zn	Zn	0.21374 0.39585 0.50973 1.20900
Zn	Zn	0.82362 0.71634 0.00402 1.23100
Zn	Zn	0.44471 0.14785 0.56669 1.22300
Zn	Zn	0.33478 0.09836 0.38969 1.20300
Zn	Zn	0.71374 0.10415 0.49027 1.20900
Zn	Zn	0.67638 0.28366 0.50402 1.23100
Zn	Zn	0.05529 0.85215 0.06669 1.22400
Zn	Zn	0.16522 0.90164 0.88969 1.20300
Zn	Zn	0.78626 0.89585 0.99027 1.20900
H 	H 	0.03400 0.31940 0.55830 0.17600
H 	H 	0.25920 0.08110 0.52370 0.17900
H 	H 	0.23720 0.41610 0.16430 0.03100
H 	H 	0.21210 0.32210 0.25930 0.05400
H 	H 	0.55910 0.47700 0.25590 0.02000
H 	H 	0.21580 0.43360 0.83290 0.04000
H 	H 	0.19470 0.34290 0.73510 0.05500
H 	H 	0.56770 0.46580 0.77160 0.04300
H 	H 	0.46600 0.68060 0.05830 0.17600
H 	H 	0.24080 0.91890 0.02370 0.18000
H 	H 	0.26280 0.58390 0.66430 0.03100
H 	H 	0.28790 0.67790 0.75930 0.05400
H 	H 	0.94090 0.52300 0.75590 0.02200
H 	H 	0.28420 0.56640 0.33290 0.04000
H 	H 	0.30530 0.65710 0.23510 0.05600
H 	H 	0.93230 0.53420 0.27160 0.04200
H 	H 	0.96600 0.81940 0.94170 0.17600
H 	H 	0.74080 0.58110 0.97630 0.18000
H 	H 	0.76280 0.91610 0.33570 0.03100
H 	H 	0.78790 0.82210 0.24070 0.05400
H 	H 	0.44090 0.97700 0.24410 0.02100
H 	H 	0.78420 0.93360 0.66710 0.04000
H 	H 	0.80530 0.84290 0.76490 0.05600
H 	H 	0.43230 0.96580 0.72840 0.04300
H 	H 	0.53400 0.18060 0.44170 0.17600
H 	H 	0.75920 0.41890 0.47630 0.17900
H 	H 	0.73720 0.08390 0.83570 0.03200
H 	H 	0.71210 0.17790 0.74070 0.05400
H 	H 	0.05910 0.02300 0.74410 0.01900
H 	H 	0.71580 0.06640 0.16710 0.03900
H 	H 	0.69470 0.15710 0.26490 0.05600
H 	H 	0.06770 0.03420 0.22840 0.04300
C 	C 	0.40120 0.45589 0.20038 -0.13900
C 	C 	0.29760 0.40920 0.20178 0.03100
C 	C 	0.28280 0.35239 0.25837 -0.05500
C 	C 	0.37490 0.34062 0.31452 -0.05000
C 	C 	0.47850 0.38780 0.31379 -0.08500
C 	C 	0.48990 0.44526 0.25634 0.04500
C 	C 	0.41410 0.51945 0.14082 0.41200
C 	C 	0.34890 0.27618 0.37146 0.39700
C 	C 	0.57710 0.37930 0.37420 0.36000
C 	C 	0.39520 0.45982 0.81159 -0.11400
C 	C 	0.28200 0.42174 0.80100 0.01300
C 	C 	0.27010 0.36692 0.74299 -0.04300
C 	C 	0.36850 0.34683 0.69598 -0.06200
C 	C 	0.48180 0.38448 0.70692 -0.08400
C 	C 	0.49310 0.44065 0.76457 0.03500
C 	C 	0.40870 0.52109 0.87316 0.40800
C 	C 	0.35360 0.28296 0.63741 0.38400
C 	C 	0.59010 0.36808 0.65547 0.37200
C 	C 	0.09880 0.54411 0.70038 -0.13800
C 	C 	0.20240 0.59080 0.70178 0.03000
C 	C 	0.21720 0.64761 0.75837 -0.05400
C 	C 	0.12510 0.65938 0.81452 -0.05000
C 	C 	0.02150 0.61220 0.81379 -0.08500
C 	C 	0.01010 0.55474 0.75634 0.04200
C 	C 	0.08590 0.48055 0.64082 0.41100
C 	C 	0.15110 0.72382 0.87146 0.39700
C 	C 	0.92290 0.62070 0.87420 0.36100
C 	C 	0.10480 0.54018 0.31159 -0.11500
C 	C 	0.21800 0.57826 0.30100 0.01400
C 	C 	0.22990 0.63308 0.24299 -0.04300
C 	C 	0.13150 0.65317 0.19598 -0.06100
C 	C 	0.01820 0.61552 0.20692 -0.08300
C 	C 	0.00690 0.55935 0.26457 0.03600
C 	C 	0.09130 0.47891 0.37316 0.40900
C 	C 	0.14640 0.71704 0.13741 0.38400
C 	C 	0.90990 0.63192 0.15547 0.37000
C 	C 	0.59880 0.95589 0.29962 -0.13700
C 	C 	0.70240 0.90920 0.29822 0.03000
C 	C 	0.71720 0.85239 0.24163 -0.05400
C 	C 	0.62510 0.84062 0.18548 -0.05100
C 	C 	0.52150 0.88780 0.18621 -0.08400
C 	C 	0.51010 0.94526 0.24366 0.04400
C 	C 	0.58590 0.01945 0.35918 0.41100
C 	C 	0.65110 0.77618 0.12854 0.39800
C 	C 	0.42290 0.87930 0.12580 0.36000
C 	C 	0.60480 0.95982 0.68841 -0.11500
C 	C 	0.71800 0.92174 0.69900 0.01400
C 	C 	0.72990 0.86692 0.75701 -0.04300
C 	C 	0.63150 0.84683 0.80402 -0.06100
C 	C 	0.51820 0.88448 0.79308 -0.08400
C 	C 	0.50690 0.94065 0.73543 0.03500
C 	C 	0.59130 0.02109 0.62684 0.40800
C 	C 	0.64640 0.78296 0.86259 0.38300
C 	C 	0.40990 0.86808 0.84453 0.37200
C 	C 	0.90120 0.04411 0.79962 -0.13700
C 	C 	0.79760 0.09080 0.79822 0.03100
C 	C 	0.78280 0.14761 0.74163 -0.05400
C 	C 	0.87490 0.15938 0.68548 -0.05000
C 	C 	0.97850 0.11220 0.68621 -0.08400
C 	C 	0.98990 0.05474 0.74366 0.04700
C 	C 	0.91410 0.98055 0.85918 0.41100
C 	C 	0.84890 0.22382 0.62854 0.39800
C 	C 	0.07710 0.12070 0.62580 0.35900
C 	C 	0.89520 0.04018 0.18841 -0.11500
C 	C 	0.78200 0.07826 0.19900 0.01300
C 	C 	0.77010 0.13308 0.25701 -0.04300
C 	C 	0.86850 0.15317 0.30402 -0.06200
C 	C 	0.98180 0.11552 0.29308 -0.08500
C 	C 	0.99310 0.05935 0.23543 0.03400
C 	C 	0.90870 0.97891 0.12684 0.40600
C 	C 	0.85360 0.21704 0.36259 0.38400
C 	C 	0.09010 0.13192 0.34453 0.37200
O 	O 	0.50310 0.56623 0.14688 -0.51400
O 	O 	0.33250 0.52335 0.08961 -0.48500
O 	O 	0.39800 0.21106 0.35966 -0.44600
O 	O 	0.27189 0.29089 0.42394 -0.55900
O 	O 	0.66660 0.42400 0.37310 -0.32200
O 	O 	0.56151 0.32824 0.42436 -0.45100
O 	O 	0.51011 0.55556 0.87538 -0.50100
O 	O 	0.31927 0.53472 0.91666 -0.49000
O 	O 	0.41363 0.22069 0.65112 -0.46400
O 	O 	0.28022 0.29223 0.58249 -0.53800
O 	O 	0.69418 0.38648 0.68200 -0.47400
O 	O 	0.57215 0.33740 0.59055 -0.48100
O 	O 	0.07118 0.31976 0.50648 -0.76300
O 	O 	0.30163 0.12590 0.50059 -0.80300
O 	O 	0.99690 0.43377 0.64688 -0.51400
O 	O 	0.16750 0.47665 0.58961 -0.48500
O 	O 	0.10200 0.78894 0.85966 -0.44600
O 	O 	0.22811 0.70911 0.92394 -0.55900
O 	O 	0.83340 0.57600 0.87310 -0.32200
O 	O 	0.93849 0.67176 0.92436 -0.45100
O 	O 	0.98989 0.44444 0.37538 -0.50200
O 	O 	0.18073 0.46528 0.41666 -0.49000
O 	O 	0.08637 0.77931 0.15112 -0.46300
O 	O 	0.21978 0.70777 0.08249 -0.53800
O 	O 	0.80582 0.61352 0.18200 -0.47400
O 	O 	0.92785 0.66260 0.09055 -0.48200
O 	O 	0.42882 0.68024 0.00648 -0.76200
O 	O 	0.19837 0.87410 0.00059 -0.80100
O 	O 	0.49690 0.06623 0.35312 -0.51400
O 	O 	0.66750 0.02335 0.41039 -0.48600
O 	O 	0.60200 0.71106 0.14034 -0.44600
O 	O 	0.72811 0.79089 0.07606 -0.55900
O 	O 	0.33340 0.92400 0.12690 -0.32100
O 	O 	0.43849 0.82824 0.07564 -0.45100
O 	O 	0.48989 0.05556 0.62462 -0.50100
O 	O 	0.68073 0.03472 0.58334 -0.49000
O 	O 	0.58637 0.72069 0.84888 -0.46400
O 	O 	0.71978 0.79223 0.91751 -0.53800
O 	O 	0.30582 0.88648 0.81800 -0.47500
O 	O 	0.42785 0.83740 0.90945 -0.48100
O 	O 	0.92882 0.81976 0.99352 -0.76300
O 	O 	0.69837 0.62590 0.99941 -0.80200
O 	O 	0.00310 0.93377 0.85312 -0.51500
O 	O 	0.83250 0.97665 0.91039 -0.48600
O 	O 	0.89800 0.28894 0.64034 -0.44500
O 	O 	0.77189 0.20911 0.57606 -0.55900
O 	O 	0.16660 0.07600 0.62690 -0.32200
O 	O 	0.06151 0.17176 0.57564 -0.45200
O 	O 	0.01011 0.94444 0.12462 -0.49800
O 	O 	0.81927 0.96528 0.08334 -0.48900
O 	O 	0.91363 0.27931 0.34888 -0.46400
O 	O 	0.78022 0.20777 0.41751 -0.53800
O 	O 	0.19418 0.11352 0.31800 -0.47500
O 	O 	0.07215 0.16260 0.40945 -0.48100
O 	O 	0.57118 0.18024 0.49352 -0.76300
O 	O 	0.80163 0.37410 0.49941 -0.80300
