data_crystal

_cell_length_a 17.82080
_cell_length_b 19.24010
_cell_length_c 19.24010
_cell_angle_alpha 120.00000
_cell_angle_beta  90.00000
_cell_angle_gamma 90.00000

_symmetry_space_group_name_	'P 1'
_symmetry_space_group_name_H-M	'P 1'

loop_
_symmetry_equiv_pos_as_xyz
  x,y,z

loop_
_atom_site_label
_atom_site_type_symbol
_atom_site_fract_x
_atom_site_fract_y
_atom_site_fract_z
_atom_site_charge
Zn	Zn	0.60008 0.66670 0.33330 1.20700
Zn	Zn	0.10008 0.33330 0.66670 1.20800
Zn	Zn	0.96517 0.29223 0.55272 1.19700
Zn	Zn	0.96517 0.44728 0.73951 1.19700
Zn	Zn	0.46517 0.55272 0.29223 1.19800
Zn	Zn	0.96517 0.26049 0.70777 1.19700
Zn	Zn	0.46517 0.70777 0.26049 1.19800
Zn	Zn	0.46517 0.73951 0.44728 1.19800
H 	H 	0.73880 0.57450 0.43210 -0.01000
H 	H 	0.73880 0.56790 0.14240 -0.01000
H 	H 	0.23880 0.43210 0.57450 -0.01000
H 	H 	0.73880 0.85760 0.42550 -0.01000
H 	H 	0.23880 0.42550 0.85760 -0.01000
H 	H 	0.23880 0.14240 0.56790 -0.01000
H 	H 	0.80900 0.52660 0.50090 0.09900
H 	H 	0.80900 0.49910 0.02570 0.09900
H 	H 	0.30900 0.50090 0.52660 0.09900
H 	H 	0.80900 0.97430 0.47340 0.09900
H 	H 	0.30900 0.47340 0.97430 0.09900
H 	H 	0.30900 0.02570 0.49910 0.09900
H 	H 	0.64390 0.36820 0.46840 0.10300
H 	H 	0.64390 0.53160 0.89980 0.10300
H 	H 	0.14390 0.46840 0.36820 0.10300
H 	H 	0.64390 0.10020 0.63180 0.10300
H 	H 	0.14390 0.63180 0.10020 0.10300
H 	H 	0.14390 0.89980 0.53160 0.10300
H 	H 	0.57450 0.41560 0.39630 0.00300
H 	H 	0.57450 0.60370 0.01930 0.00300
H 	H 	0.07450 0.39630 0.41560 0.00400
H 	H 	0.57450 0.98070 0.58440 0.00300
H 	H 	0.07450 0.58440 0.98070 0.00400
H 	H 	0.07450 0.01930 0.60370 0.00400
H 	H 	0.90550 0.29130 0.40010 0.22300
H 	H 	0.90550 0.59990 0.89120 0.22300
H 	H 	0.40550 0.40010 0.29130 0.22400
H 	H 	0.90550 0.10880 0.70870 0.22200
H 	H 	0.40550 0.70870 0.10880 0.22400
H 	H 	0.40550 0.89120 0.59990 0.22400
H 	H 	0.87660 0.36990 0.39970 0.22100
H 	H 	0.87660 0.60030 0.97020 0.22100
H 	H 	0.37660 0.39970 0.36990 0.22200
H 	H 	0.87660 0.02980 0.63010 0.22100
H 	H 	0.37660 0.63010 0.02980 0.22200
H 	H 	0.37660 0.97020 0.60030 0.22200
H 	H 	0.82040 0.29650 0.37650 0.22500
H 	H 	0.82040 0.62350 0.92000 0.22500
H 	H 	0.32040 0.37650 0.29650 0.22500
H 	H 	0.82040 0.08000 0.70350 0.22400
H 	H 	0.32040 0.70350 0.08000 0.22500
H 	H 	0.32040 0.92000 0.62350 0.22500
H 	H 	0.40680 0.73410 0.70780 0.01700
H 	H 	0.40680 0.29220 0.02630 0.01700
H 	H 	0.90680 0.70780 0.73410 0.01700
H 	H 	0.40680 0.97370 0.26590 0.01700
H 	H 	0.90680 0.26590 0.97370 0.01800
H 	H 	0.90680 0.02630 0.29220 0.01800
H 	H 	0.40950 0.65700 0.77140 0.08400
H 	H 	0.40950 0.22860 0.88560 0.08400
H 	H 	0.90950 0.77140 0.65700 0.08400
H 	H 	0.40950 0.11440 0.34300 0.08400
H 	H 	0.90950 0.34300 0.11440 0.08200
H 	H 	0.90950 0.88560 0.22860 0.08200
H 	H 	0.50450 0.47250 0.57290 0.10300
H 	H 	0.50450 0.42710 0.89960 0.10300
H 	H 	0.00450 0.57290 0.47250 0.10700
H 	H 	0.50450 0.10040 0.52750 0.10300
H 	H 	0.00450 0.52750 0.10040 0.10400
H 	H 	0.00450 0.89960 0.42710 0.10400
H 	H 	0.50320 0.55090 0.51080 0.02300
H 	H 	0.50320 0.48920 0.04010 0.02300
H 	H 	0.00320 0.51080 0.55090 0.02800
H 	H 	0.50320 0.95990 0.44910 0.02300
H 	H 	0.00320 0.44910 0.95990 0.03200
H 	H 	0.00320 0.04010 0.48920 0.03100
H 	H 	0.29680 0.44700 0.73620 0.21000
H 	H 	0.29680 0.26380 0.71080 0.21000
H 	H 	0.79680 0.73620 0.44700 0.21000
H 	H 	0.29680 0.28920 0.55300 0.21000
H 	H 	0.79680 0.55300 0.28920 0.21000
H 	H 	0.79680 0.71080 0.26380 0.21000
H 	H 	0.31980 0.46580 0.66680 0.21000
H 	H 	0.31980 0.33320 0.79900 0.21100
H 	H 	0.81980 0.66680 0.46580 0.21000
H 	H 	0.31980 0.20100 0.53420 0.21000
H 	H 	0.81980 0.53420 0.20100 0.21000
H 	H 	0.81980 0.79900 0.33320 0.21000
H 	H 	0.30690 0.53790 0.75650 0.20600
H 	H 	0.30690 0.24350 0.78140 0.20600
H 	H 	0.80690 0.75650 0.53790 0.20500
H 	H 	0.30690 0.21860 0.46210 0.20600
H 	H 	0.80690 0.46210 0.21860 0.20500
H 	H 	0.80690 0.78140 0.24350 0.20500
H 	H 	0.59110 0.63540 0.82400 0.05400
H 	H 	0.59110 0.17600 0.81140 0.05400
H 	H 	0.09110 0.82400 0.63540 0.05400
H 	H 	0.59110 0.18860 0.36460 0.05400
H 	H 	0.09110 0.36460 0.18860 0.05400
H 	H 	0.09110 0.81140 0.17600 0.05400
H 	H 	0.71190 0.67680 0.81720 0.02800
H 	H 	0.71190 0.18280 0.85960 0.02800
H 	H 	0.21190 0.81720 0.67680 0.02900
H 	H 	0.71190 0.14040 0.32320 0.02800
H 	H 	0.21190 0.32320 0.14040 0.02900
H 	H 	0.21190 0.85960 0.18280 0.02800
H 	H 	0.79710 0.58770 0.72090 0.06400
H 	H 	0.79710 0.27910 0.86680 0.06400
H 	H 	0.29710 0.72090 0.58770 0.06400
H 	H 	0.79710 0.13320 0.41230 0.06400
H 	H 	0.29710 0.41230 0.13320 0.06400
H 	H 	0.29710 0.86680 0.27910 0.06400
H 	H 	0.64050 0.41180 0.64360 0.06500
H 	H 	0.64050 0.35640 0.76820 0.06500
H 	H 	0.14050 0.64360 0.41180 0.06400
H 	H 	0.64050 0.23180 0.58820 0.06500
H 	H 	0.14050 0.58820 0.23180 0.06500
H 	H 	0.14050 0.76820 0.35640 0.06500
C 	C 	0.60689 0.53193 0.36212 0.40300
C 	C 	0.60689 0.63788 0.16981 0.40300
C 	C 	0.10689 0.36212 0.53193 0.40300
C 	C 	0.60689 0.83019 0.46807 0.40300
C 	C 	0.10689 0.46807 0.83019 0.40400
C 	C 	0.10689 0.16981 0.63788 0.40300
C 	C 	0.65005 0.49924 0.40690 -0.17400
C 	C 	0.65005 0.59310 0.09234 -0.17400
C 	C 	0.15005 0.40690 0.49924 -0.17300
C 	C 	0.65005 0.90766 0.50076 -0.17400
C 	C 	0.15005 0.50076 0.90766 -0.17400
C 	C 	0.15005 0.09234 0.59310 -0.17300
C 	C 	0.71960 0.53220 0.43890 0.10900
C 	C 	0.71960 0.56110 0.09330 0.10900
C 	C 	0.21960 0.43890 0.53220 0.10900
C 	C 	0.71960 0.90670 0.46780 0.10900
C 	C 	0.21960 0.46780 0.90670 0.10900
C 	C 	0.21960 0.09330 0.56110 0.10900
C 	C 	0.76110 0.50430 0.48020 -0.20400
C 	C 	0.76110 0.51980 0.02410 -0.20300
C 	C 	0.26110 0.48020 0.50430 -0.20300
C 	C 	0.76110 0.97590 0.49570 -0.20300
C 	C 	0.26110 0.49570 0.97590 -0.20200
C 	C 	0.26110 0.02410 0.51980 -0.20200
C 	C 	0.73239 0.44335 0.49160 0.17400
C 	C 	0.73239 0.50840 0.95175 0.17300
C 	C 	0.23239 0.49160 0.44335 0.17400
C 	C 	0.73239 0.04825 0.55665 0.17300
C 	C 	0.23239 0.55665 0.04825 0.17300
C 	C 	0.23239 0.95175 0.50840 0.17300
C 	C 	0.66335 0.40990 0.46080 -0.19800
C 	C 	0.66335 0.53920 0.94910 -0.19700
C 	C 	0.16335 0.46080 0.40990 -0.19700
C 	C 	0.66335 0.05090 0.59010 -0.19700
C 	C 	0.16335 0.59010 0.05090 -0.19900
C 	C 	0.16335 0.94910 0.53920 -0.19900
C 	C 	0.62212 0.43840 0.41800 0.10300
C 	C 	0.62212 0.58200 0.02040 0.10300
C 	C 	0.12212 0.41800 0.43840 0.10300
C 	C 	0.62212 0.97960 0.56160 0.10300
C 	C 	0.12212 0.56160 0.97960 0.10500
C 	C 	0.12212 0.02040 0.58200 0.10500
C 	C 	0.86260 0.32720 0.41090 -0.67500
C 	C 	0.86260 0.58910 0.91630 -0.67500
C 	C 	0.36260 0.41090 0.32720 -0.67700
C 	C 	0.86260 0.08370 0.67280 -0.67400
C 	C 	0.36260 0.67280 0.08370 -0.67600
C 	C 	0.36260 0.91630 0.58910 -0.67700
C 	C 	0.84022 0.36327 0.49660 0.28600
C 	C 	0.84022 0.50340 0.86667 0.28500
C 	C 	0.34022 0.49660 0.36327 0.28600
C 	C 	0.84022 0.13333 0.63673 0.28500
C 	C 	0.34022 0.63673 0.13333 0.28600
C 	C 	0.34022 0.86667 0.50340 0.28600
C 	C 	0.78147 0.43525 0.61196 0.10800
C 	C 	0.78147 0.38804 0.82329 0.10800
C 	C 	0.28147 0.61196 0.43525 0.10800
C 	C 	0.78147 0.17671 0.56475 0.10800
C 	C 	0.28147 0.56475 0.17671 0.10800
C 	C 	0.28147 0.82329 0.38804 0.10800
C 	C 	0.45654 0.70296 0.56446 0.34400
C 	C 	0.45654 0.43554 0.13850 0.34400
C 	C 	0.95654 0.56446 0.70296 0.34300
C 	C 	0.45654 0.86150 0.29704 0.34400
C 	C 	0.95654 0.29704 0.86150 0.34200
C 	C 	0.95654 0.13850 0.43554 0.34200
C 	C 	0.45707 0.65129 0.60370 -0.12900
C 	C 	0.45707 0.39630 0.04759 -0.12800
C 	C 	0.95707 0.60370 0.65129 -0.12800
C 	C 	0.45707 0.95241 0.34871 -0.12800
C 	C 	0.95707 0.34871 0.95241 -0.12400
C 	C 	0.95707 0.04759 0.39630 -0.12400
C 	C 	0.42770 0.68170 0.68080 0.06600
C 	C 	0.42770 0.31920 0.00090 0.06400
C 	C 	0.92770 0.68080 0.68170 0.06500
C 	C 	0.42770 0.99910 0.31830 0.06400
C 	C 	0.92770 0.31830 0.99910 0.06000
C 	C 	0.92770 0.00090 0.31920 0.06000
C 	C 	0.42890 0.63560 0.71860 -0.17100
C 	C 	0.42890 0.28140 0.91700 -0.16900
C 	C 	0.92890 0.71860 0.63560 -0.17100
C 	C 	0.42890 0.08300 0.36440 -0.16900
C 	C 	0.92890 0.36440 0.08300 -0.16700
C 	C 	0.92890 0.91700 0.28140 -0.16700
C 	C 	0.45849 0.55894 0.67889 0.15400
C 	C 	0.45849 0.32111 0.88005 0.15300
C 	C 	0.95849 0.67889 0.55894 0.15500
C 	C 	0.45849 0.11995 0.44106 0.15300
C 	C 	0.95849 0.44106 0.11995 0.15100
C 	C 	0.95849 0.88005 0.32111 0.15100
C 	C 	0.48567 0.52587 0.60065 -0.16900
C 	C 	0.48567 0.39935 0.92522 -0.16700
C 	C 	0.98567 0.60065 0.52587 -0.17400
C 	C 	0.48567 0.07478 0.47413 -0.16700
C 	C 	0.98567 0.47413 0.07478 -0.16600
C 	C 	0.98567 0.92522 0.39935 -0.16600
C 	C 	0.48465 0.57288 0.56396 0.06800
C 	C 	0.48465 0.43604 0.00892 0.06600
C 	C 	0.98465 0.56396 0.57288 0.06200
C 	C 	0.48465 0.99108 0.42712 0.06600
C 	C 	0.98465 0.42712 0.99108 0.05400
C 	C 	0.98465 0.00892 0.43604 0.05400
C 	C 	0.32550 0.48290 0.72380 -0.62300
C 	C 	0.32550 0.27620 0.75910 -0.62300
C 	C 	0.82550 0.72380 0.48290 -0.62200
C 	C 	0.32550 0.24090 0.51710 -0.62300
C 	C 	0.82550 0.51710 0.24090 -0.62200
C 	C 	0.82550 0.75910 0.27620 -0.62200
C 	C 	0.40624 0.47980 0.74197 0.26200
C 	C 	0.40624 0.25803 0.73783 0.26200
C 	C 	0.90624 0.74197 0.47980 0.26200
C 	C 	0.40624 0.26217 0.52020 0.26200
C 	C 	0.90624 0.52020 0.26217 0.26200
C 	C 	0.90624 0.73783 0.25803 0.26200
C 	C 	0.52835 0.49313 0.74494 0.10300
C 	C 	0.52835 0.25506 0.74819 0.10300
C 	C 	0.02835 0.74494 0.49313 0.10600
C 	C 	0.52835 0.25181 0.50687 0.10300
C 	C 	0.02835 0.50687 0.25181 0.10600
C 	C 	0.02835 0.74819 0.25506 0.10500
C 	C 	0.60423 0.51951 0.73580 0.01100
C 	C 	0.60423 0.26420 0.78371 0.01100
C 	C 	0.10423 0.73580 0.51951 0.01100
C 	C 	0.60423 0.21629 0.48049 0.01100
C 	C 	0.10423 0.48049 0.21629 0.01100
C 	C 	0.10423 0.78371 0.26420 0.01100
C 	C 	0.62570 0.59820 0.78610 -0.07200
C 	C 	0.62570 0.21390 0.81210 -0.07200
C 	C 	0.12570 0.78610 0.59820 -0.07100
C 	C 	0.62570 0.18790 0.40180 -0.07200
C 	C 	0.12570 0.40180 0.18790 -0.07100
C 	C 	0.12570 0.81210 0.21390 -0.07100
C 	C 	0.69720 0.62300 0.78130 -0.00500
C 	C 	0.69720 0.21870 0.84170 -0.00500
C 	C 	0.19720 0.78130 0.62300 -0.00500
C 	C 	0.69720 0.15830 0.37700 -0.00500
C 	C 	0.19720 0.37700 0.15830 -0.00500
C 	C 	0.19720 0.84170 0.21870 -0.00500
C 	C 	0.74810 0.57000 0.72420 -0.07500
C 	C 	0.74810 0.27580 0.84580 -0.07500
C 	C 	0.24810 0.72420 0.57000 -0.07400
C 	C 	0.74810 0.15420 0.43000 -0.07500
C 	C 	0.24810 0.43000 0.15420 -0.07400
C 	C 	0.24810 0.84580 0.27580 -0.07500
C 	C 	0.72671 0.49118 0.67231 0.00900
C 	C 	0.72671 0.32769 0.81887 0.00900
C 	C 	0.22671 0.67231 0.49118 0.00800
C 	C 	0.72671 0.18113 0.50882 0.00900
C 	C 	0.22671 0.50882 0.18113 0.00800
C 	C 	0.22671 0.81887 0.32769 0.00800
C 	C 	0.65503 0.46592 0.67853 -0.07100
C 	C 	0.65503 0.32147 0.78739 -0.07100
C 	C 	0.15503 0.67853 0.46592 -0.07000
C 	C 	0.65503 0.21261 0.53408 -0.07100
C 	C 	0.15503 0.53408 0.21261 -0.07000
C 	C 	0.15503 0.78739 0.32147 -0.07000
N 	N 	0.87471 0.35576 0.55240 -0.27900
N 	N 	0.87471 0.44760 0.80336 -0.27900
N 	N 	0.37471 0.55240 0.35576 -0.27900
N 	N 	0.87471 0.19664 0.64424 -0.27900
N 	N 	0.37471 0.64424 0.19664 -0.27800
N 	N 	0.37471 0.80336 0.44760 -0.27800
N 	N 	0.83869 0.40161 0.62591 -0.14800
N 	N 	0.83869 0.37409 0.77570 -0.14800
N 	N 	0.33869 0.62591 0.40161 -0.14800
N 	N 	0.83869 0.22430 0.59839 -0.14800
N 	N 	0.33869 0.59839 0.22430 -0.14800
N 	N 	0.33869 0.77570 0.37409 -0.14800
N 	N 	0.77927 0.41226 0.53101 -0.19400
N 	N 	0.77927 0.46899 0.88125 -0.19400
N 	N 	0.27927 0.53101 0.41226 -0.19400
N 	N 	0.77927 0.11875 0.58774 -0.19400
N 	N 	0.27927 0.58774 0.11875 -0.19400
N 	N 	0.27927 0.88125 0.46899 -0.19400
N 	N 	0.43395 0.44330 0.77897 -0.13100
N 	N 	0.43395 0.22103 0.66433 -0.13100
N 	N 	0.93395 0.77897 0.44330 -0.13200
N 	N 	0.43395 0.33567 0.55670 -0.13100
N 	N 	0.93395 0.55670 0.33567 -0.13200
N 	N 	0.93395 0.66433 0.22103 -0.13200
N 	N 	0.51280 0.45178 0.78020 -0.09900
N 	N 	0.51280 0.21980 0.67158 -0.09900
N 	N 	0.01280 0.78020 0.45178 -0.09800
N 	N 	0.51280 0.32842 0.54822 -0.09900
N 	N 	0.01280 0.54822 0.32842 -0.09800
N 	N 	0.01280 0.67158 0.21980 -0.09800
N 	N 	0.46375 0.51329 0.71979 -0.18400
N 	N 	0.46375 0.28021 0.79350 -0.18400
N 	N 	0.96375 0.71979 0.51329 -0.18600
N 	N 	0.46375 0.20650 0.48671 -0.18400
N 	N 	0.96375 0.48671 0.20650 -0.18500
N 	N 	0.96375 0.79350 0.28021 -0.18500
O 	O 	0.49218 0.66670 0.33330 -0.91800
O 	O 	0.99218 0.33330 0.66670 -0.92000
O 	O 	0.64204 0.58291 0.35058 -0.51100
O 	O 	0.64204 0.64942 0.23233 -0.51100
O 	O 	0.14204 0.35058 0.58291 -0.51000
O 	O 	0.64204 0.76767 0.41709 -0.51100
O 	O 	0.14204 0.41709 0.76767 -0.51000
O 	O 	0.14204 0.23233 0.64942 -0.51000
O 	O 	0.54142 0.50717 0.33915 -0.48400
O 	O 	0.54142 0.66085 0.16802 -0.48400
O 	O 	0.04142 0.33915 0.50717 -0.48200
O 	O 	0.54142 0.83198 0.49283 -0.48400
O 	O 	0.04142 0.49283 0.83198 -0.48100
O 	O 	0.04142 0.16802 0.66085 -0.48100
O 	O 	0.48802 0.67273 0.49571 -0.48500
O 	O 	0.48802 0.50429 0.17702 -0.48500
O 	O 	0.98802 0.49571 0.67273 -0.48700
O 	O 	0.48802 0.82298 0.32727 -0.48500
O 	O 	0.98802 0.32727 0.82298 -0.48600
O 	O 	0.98802 0.17702 0.50429 -0.48600
O 	O 	0.42559 0.76942 0.59887 -0.34400
O 	O 	0.42559 0.40113 0.17055 -0.34400
O 	O 	0.92559 0.59887 0.76942 -0.34500
O 	O 	0.42559 0.82945 0.23058 -0.34400
O 	O 	0.92559 0.23058 0.82945 -0.34400
O 	O 	0.92559 0.17055 0.40113 -0.34400
