data_crystal

_cell_length_a 16.53880
_cell_length_b 17.67250
_cell_length_c 17.67250
_cell_angle_alpha 77.35250
_cell_angle_beta  62.10040
_cell_angle_gamma 62.10040

_symmetry_space_group_name_	'P 1'
_symmetry_space_group_name_H-M	'P 1'

loop_
_symmetry_equiv_pos_as_xyz
  x,y,z

loop_
_atom_site_label
_atom_site_type_symbol
_atom_site_fract_x
_atom_site_fract_y
_atom_site_fract_z
_atom_site_charge
In	In	0.58739 0.01853 0.60310 1.99300
In	In	0.20902 0.98147 0.39690 1.99300
In	In	0.80951 0.60310 0.98147 1.99300
In	In	0.39408 0.39690 0.01853 1.99300
H 	H 	0.02790 0.04260 0.08060 0.05600
H 	H 	0.08390 0.94250 0.06990 0.05400
H 	H 	0.07610 0.97610 0.19130 0.11600
H 	H 	0.92060 0.97120 0.44640 0.10400
H 	H 	0.79380 0.99580 0.28980 0.12300
H 	H 	0.78430 0.60330 0.47890 0.07500
H 	H 	0.67440 0.62170 0.55030 0.07000
H 	H 	0.70370 0.72380 0.57160 0.09800
H 	H 	0.71150 0.78620 0.77320 0.09500
H 	H 	0.82670 0.53490 0.71950 0.11200
H 	H 	0.15110 0.95740 0.91940 0.05600
H 	H 	0.09630 0.05750 0.93010 0.05600
H 	H 	0.24350 0.02390 0.80870 0.11700
H 	H 	0.33820 0.02880 0.55360 0.10400
H 	H 	0.07940 0.00420 0.71020 0.12500
H 	H 	0.86650 0.39670 0.52110 0.07400
H 	H 	0.84640 0.37830 0.44970 0.06900
H 	H 	0.99910 0.27620 0.42840 0.08700
H 	H 	0.27090 0.21380 0.22680 0.09400
H 	H 	0.08110 0.46510 0.28050 0.11300
H 	H 	0.89150 0.08060 0.95740 0.05400
H 	H 	0.84620 0.06990 0.05750 0.05500
H 	H 	0.73260 0.19130 0.02390 0.11600
H 	H 	0.63300 0.44640 0.02880 0.10300
H 	H 	0.91640 0.28980 0.00420 0.12200
H 	H 	0.73680 0.47890 0.39670 0.07500
H 	H 	0.77530 0.55030 0.37830 0.07000
H 	H 	0.72470 0.57160 0.27620 0.09700
H 	H 	0.51530 0.77320 0.21380 0.09600
H 	H 	0.45380 0.71950 0.46510 0.11300
H 	H 	0.92950 0.91940 0.04260 0.06100
H 	H 	0.97360 0.93010 0.94250 0.05800
H 	H 	0.94780 0.80870 0.97610 0.10500
H 	H 	0.10820 0.55360 0.97120 0.10600
H 	H 	0.21040 0.71020 0.99580 0.12200
H 	H 	0.61240 0.52110 0.60330 0.07600
H 	H 	0.70390 0.44970 0.62170 0.07000
H 	H 	0.57250 0.42840 0.72380 0.09800
H 	H 	0.50230 0.22680 0.78620 0.09600
H 	H 	0.63840 0.28050 0.53490 0.11200
C 	C 	0.02111 0.99219 0.07649 -0.00400
C 	C 	0.94042 0.97801 0.22685 0.22800
C 	C 	0.01957 0.97387 0.23863 -0.16400
C 	C 	0.01559 0.96621 0.32381 0.03800
C 	C 	0.92650 0.97158 0.39142 -0.07800
C 	C 	0.84038 0.97772 0.38232 0.02300
C 	C 	0.84943 0.98545 0.29849 -0.15300
C 	C 	0.09611 0.96466 0.33652 0.23300
C 	C 	0.75210 0.99002 0.46096 0.26300
C 	C 	0.74370 0.57888 0.52752 -0.06300
C 	C 	0.76310 0.61946 0.64214 0.16200
C 	C 	0.71823 0.70845 0.61909 -0.11300
C 	C 	0.69849 0.76771 0.66911 -0.00800
C 	C 	0.72380 0.74420 0.74040 -0.05000
C 	C 	0.76809 0.65635 0.76065 0.01600
C 	C 	0.79256 0.59254 0.70954 -0.12700
C 	C 	0.64748 0.85896 0.65368 0.31700
C 	C 	0.79630 0.63380 0.83740 0.29700
C 	C 	0.08979 0.00781 0.92351 -0.00400
C 	C 	0.14528 0.02199 0.77315 0.23300
C 	C 	0.23207 0.02613 0.76137 -0.16800
C 	C 	0.30561 0.03379 0.67619 0.03300
C 	C 	0.28950 0.02842 0.60858 -0.07200
C 	C 	0.20042 0.02228 0.61768 0.02400
C 	C 	0.13337 0.01455 0.70151 -0.15300
C 	C 	0.39729 0.03534 0.66348 0.23400
C 	C 	0.20308 0.00998 0.53904 0.26100
C 	C 	0.85010 0.42112 0.47248 -0.06200
C 	C 	0.02470 0.38054 0.35786 0.16300
C 	C 	0.04577 0.29155 0.38091 -0.09700
C 	C 	0.13531 0.23229 0.33089 -0.01500
C 	C 	0.20840 0.25580 0.25960 -0.04600
C 	C 	0.18509 0.34365 0.23935 0.01500
C 	C 	0.09464 0.40746 0.29046 -0.12500
C 	C 	0.16012 0.14104 0.34632 0.32100
C 	C 	0.26750 0.36620 0.16260 0.29800
C 	C 	0.90240 0.07649 0.00781 -0.01000
C 	C 	0.83273 0.22685 0.02199 0.23200
C 	C 	0.74180 0.23863 0.02613 -0.16800
C 	C 	0.66060 0.32381 0.03379 0.03200
C 	C 	0.68208 0.39142 0.02842 -0.07200
C 	C 	0.77730 0.38232 0.02228 0.02200
C 	C 	0.85208 0.29849 0.01455 -0.15300
C 	C 	0.56737 0.33652 0.03534 0.23400
C 	C 	0.78694 0.46096 0.00998 0.26300
C 	C 	0.72878 0.52752 0.42112 -0.06300
C 	C 	0.59476 0.64214 0.38054 0.16200
C 	C 	0.66268 0.61909 0.29155 -0.11300
C 	C 	0.63240 0.66911 0.23229 -0.00800
C 	C 	0.53580 0.74040 0.25580 -0.05000
C 	C 	0.47126 0.76065 0.34365 0.01700
C 	C 	0.49790 0.70954 0.40746 -0.12700
C 	C 	0.69884 0.65368 0.14104 0.31800
C 	C 	0.36630 0.83740 0.36620 0.29700
C 	C 	0.98670 0.92351 0.99219 -0.02500
C 	C 	0.08157 0.77315 0.97801 0.22500
C 	C 	0.00656 0.76137 0.97387 -0.15100
C 	C 	0.01820 0.67619 0.96621 0.03700
C 	C 	0.10192 0.60858 0.97158 -0.07200
C 	C 	0.18190 0.61768 0.97772 0.02200
C 	C 	0.16512 0.70151 0.98545 -0.14800
C 	C 	0.93923 0.66348 0.96466 0.22700
C 	C 	0.25788 0.53904 0.99002 0.26500
C 	C 	0.67742 0.47248 0.57888 -0.06300
C 	C 	0.61744 0.35786 0.61946 0.16200
C 	C 	0.57332 0.38091 0.70845 -0.11300
C 	C 	0.53380 0.33089 0.76771 -0.00800
C 	C 	0.53200 0.25960 0.74420 -0.05000
C 	C 	0.57556 0.23935 0.65635 0.01600
C 	C 	0.61490 0.29046 0.59254 -0.12700
C 	C 	0.49356 0.34632 0.85896 0.31700
C 	C 	0.56990 0.16260 0.63380 0.29700
C 	C 	-0.00000 0.00000 -0.00000 0.04200
C 	C 	0.75000 0.50000 0.50000 0.08600
O 	O 	0.93998 0.98378 0.15220 -0.22900
O 	O 	0.66994 0.01111 0.45247 -0.38500
O 	O 	0.75229 0.98462 0.53178 -0.43700
O 	O 	0.09291 0.94633 0.41171 -0.45000
O 	O 	0.16962 0.97857 0.27241 -0.32800
O 	O 	0.78190 0.55210 0.59350 -0.18700
O 	O 	0.62299 0.88202 0.59384 -0.45800
O 	O 	0.64110 0.91363 0.69367 -0.41700
O 	O 	0.74789 0.68537 0.89303 -0.48100
O 	O 	0.86249 0.55865 0.83519 -0.37700
O 	O 	0.07596 0.01622 0.84780 -0.22500
O 	O 	0.13352 0.98889 0.54753 -0.38100
O 	O 	0.26869 0.01538 0.46822 -0.43700
O 	O 	0.45095 0.05367 0.58829 -0.45100
O 	O 	0.42060 0.02143 0.72759 -0.32800
O 	O 	0.92750 0.44790 0.40650 -0.19100
O 	O 	0.09885 0.11798 0.40616 -0.45800
O 	O 	0.24840 0.08637 0.30633 -0.41800
O 	O 	0.32629 0.31463 0.10697 -0.48100
O 	O 	0.25633 0.44135 0.16481 -0.37600
O 	O 	0.90782 0.15220 0.01622 -0.23000
O 	O 	0.87759 0.45247 0.98889 -0.38500
O 	O 	0.71593 0.53178 0.01538 -0.43700
O 	O 	0.49538 0.41171 0.05367 -0.45100
O 	O 	0.55797 0.27241 0.02143 -0.32900
O 	O 	0.62460 0.59350 0.44790 -0.18600
O 	O 	0.78317 0.59384 0.11798 -0.45900
O 	O 	0.66523 0.69367 0.08637 -0.41700
O 	O 	0.35908 0.89303 0.31463 -0.48100
O 	O 	0.30232 0.83519 0.44135 -0.37500
O 	O 	0.07624 0.84780 0.98378 -0.21800
O 	O 	0.31895 0.54753 0.01111 -0.38500
O 	O 	0.26309 0.46822 0.98462 -0.43600
O 	O 	0.96076 0.58829 0.94633 -0.45300
O 	O 	0.85181 0.72759 0.97857 -0.32800
O 	O 	0.66600 0.40650 0.55210 -0.18700
O 	O 	0.49499 0.40616 0.88202 -0.45800
O 	O 	0.44527 0.30633 0.91363 -0.41600
O 	O 	0.56674 0.10697 0.68537 -0.48200
O 	O 	0.57886 0.16481 0.55865 -0.37600
