data_crystal

_cell_length_a 9.62820
_cell_length_b 15.21000
_cell_length_c 15.21000
_cell_angle_alpha 90.00000
_cell_angle_beta  90.00090
_cell_angle_gamma 90.00090

_symmetry_space_group_name_	'P 1'
_symmetry_space_group_name_H-M	'P 1'

loop_
_symmetry_equiv_pos_as_xyz
  x,y,z

loop_
_atom_site_label
_atom_site_type_symbol
_atom_site_fract_x
_atom_site_fract_y
_atom_site_fract_z
_atom_site_charge
Zn	Zn	0.66620 0.00689 0.99371 1.25900
Zn	Zn	0.33432 0.00685 0.99372 1.25900
H 	H 	0.71864 0.28024 0.02494 0.03400
H 	H 	0.71860 0.44055 0.02721 0.05000
H 	H 	0.71786 0.73340 0.96107 0.02700
H 	H 	0.71774 0.57311 0.95894 0.03900
H 	H 	0.71860 0.97571 0.72041 0.03300
H 	H 	0.71850 0.97333 0.56013 0.04900
H 	H 	0.71846 0.03811 0.26715 0.02700
H 	H 	0.71838 0.04048 0.42742 0.03900
H 	H 	0.28204 0.28041 0.96339 0.02400
H 	H 	0.28230 0.44065 0.96113 0.03900
H 	H 	0.28294 0.73334 0.02714 0.03300
H 	H 	0.28318 0.57308 0.02945 0.05000
H 	H 	0.28228 0.97540 0.26727 0.03300
H 	H 	0.28254 0.97298 0.42748 0.04900
H 	H 	0.28218 0.03774 0.72032 0.02500
H 	H 	0.28242 0.04019 0.56007 0.03900
H 	H 	0.88052 0.96500 0.12684 0.05400
H 	H 	0.88038 0.08161 0.11181 0.03900
H 	H 	0.87956 0.91220 0.89020 0.03500
H 	H 	0.88142 0.86716 0.99876 0.02400
H 	H 	0.88052 0.14382 0.96274 0.02700
H 	H 	0.88030 0.07252 0.86942 0.02800
H 	H 	0.12048 0.07018 0.86817 0.02900
H 	H 	0.11944 0.14313 0.96019 0.02900
H 	H 	0.12060 0.08371 0.11044 0.03900
H 	H 	0.11930 0.96737 0.12749 0.05100
H 	H 	0.11936 0.86722 0.00136 0.05800
H 	H 	0.12038 0.91025 0.89199 0.04300
C 	C 	0.50024 0.16621 0.99411 0.41100
C 	C 	0.50030 0.26599 0.99420 -0.15300
C 	C 	0.50044 0.45647 0.99420 -0.00300
C 	C 	0.50032 0.84747 0.99404 0.40900
C 	C 	0.50040 0.74770 0.99413 -0.14300
C 	C 	0.50046 0.55722 0.99420 -0.00200
C 	C 	0.50034 0.00671 0.83440 0.41000
C 	C 	0.50038 0.00669 0.73465 -0.14900
C 	C 	0.50046 0.00675 0.54417 -0.00100
C 	C 	0.50028 0.00677 0.15313 0.40900
C 	C 	0.50036 0.00675 0.25289 -0.13900
C 	C 	0.50046 0.00675 0.44338 0.00000
C 	C 	0.91968 0.01875 0.08387 -0.03600
C 	C 	0.91964 0.92281 0.95798 -0.01100
C 	C 	0.91958 0.07970 0.93782 -0.04100
C 	C 	0.08082 0.07851 0.93634 -0.04200
C 	C 	0.08074 0.02052 0.08359 -0.03700
C 	C 	0.08074 0.92206 0.95967 -0.05000
C 	C 	0.62242 0.31439 0.01105 0.06300
C 	C 	0.62236 0.40740 0.01162 -0.04000
C 	C 	0.62204 0.69929 0.97606 0.03000
C 	C 	0.62194 0.60628 0.97553 -0.06900
C 	C 	0.62242 0.98971 0.68626 0.06000
C 	C 	0.62232 0.98912 0.59325 -0.04200
C 	C 	0.62234 0.02394 0.30129 0.03000
C 	C 	0.62226 0.02455 0.39431 -0.06900
C 	C 	0.37828 0.31446 0.97733 0.03100
C 	C 	0.37848 0.40746 0.97676 -0.07100
C 	C 	0.37880 0.69925 0.01223 0.05600
C 	C 	0.37896 0.60625 0.01284 -0.03900
C 	C 	0.37844 0.98955 0.30135 0.05300
C 	C 	0.37864 0.98893 0.39434 -0.04100
C 	C 	0.37838 0.02373 0.68621 0.03100
C 	C 	0.37858 0.02437 0.59321 -0.07100
N 	N 	0.86636 0.00706 0.99330 -0.24000
N 	N 	0.13406 0.00701 0.99327 -0.23500
O 	O 	0.61508 0.00708 0.11109 -0.46600
O 	O 	0.38544 0.00649 0.11112 -0.46900
O 	O 	0.38548 0.88948 0.99430 -0.47300
O 	O 	0.38530 0.12421 0.99376 -0.48800
O 	O 	0.38534 0.00698 0.87639 -0.48700
O 	O 	0.61514 0.88952 0.99366 -0.46800
O 	O 	0.61512 0.12420 0.99432 -0.49100
O 	O 	0.61532 0.00650 0.87640 -0.49100
