data_crystal

_cell_length_a 13.92490
_cell_length_b 18.11130
_cell_length_c 18.11130
_cell_angle_alpha 81.46810
_cell_angle_beta  67.39190
_cell_angle_gamma 67.39190

_symmetry_space_group_name_	'P 1'
_symmetry_space_group_name_H-M	'P 1'

loop_
_symmetry_equiv_pos_as_xyz
  x,y,z

loop_
_atom_site_label
_atom_site_type_symbol
_atom_site_fract_x
_atom_site_fract_y
_atom_site_fract_z
_atom_site_charge
Zn	Zn	0.84436 0.26920 0.28312 1.18600
Zn	Zn	0.65564 0.21688 0.23080 1.18600
Zn	Zn	0.10332 0.28312 0.26920 1.18500
Zn	Zn	0.39668 0.23080 0.21688 1.18600
Zn	Zn	0.15564 0.73080 0.71688 1.18700
Zn	Zn	0.34436 0.78312 0.76920 1.18700
Zn	Zn	0.89668 0.71688 0.73080 1.18600
Zn	Zn	0.60332 0.76920 0.78312 1.18700
H 	H 	0.79610 0.13090 0.48490 -0.02800
H 	H 	0.80310 0.02880 0.58040 0.11200
H 	H 	0.00300 0.80760 0.61140 0.21100
H 	H 	0.96150 0.89820 0.58780 0.25900
H 	H 	0.98950 0.83200 0.52820 0.25400
H 	H 	0.04340 0.04630 0.16790 -0.00900
H 	H 	0.14180 0.94770 0.07230 0.08900
H 	H 	0.15130 0.89030 0.86590 0.21900
H 	H 	0.12030 0.97830 0.89070 0.25300
H 	H 	0.11180 0.91160 0.95620 0.24600
H 	H 	0.70390 0.01510 0.36910 -0.02900
H 	H 	0.69690 0.91960 0.47120 0.11200
H 	H 	0.49700 0.88860 0.69240 0.21000
H 	H 	0.53850 0.91220 0.60180 0.25800
H 	H 	0.51050 0.97180 0.66800 0.25300
H 	H 	0.45660 0.33210 0.45370 -0.01300
H 	H 	0.35820 0.42770 0.55230 0.09400
H 	H 	0.34870 0.63410 0.60970 0.22000
H 	H 	0.37970 0.60930 0.52170 0.25400
H 	H 	0.38820 0.54380 0.58840 0.24700
H 	H 	0.08810 0.48490 0.13090 -0.02900
H 	H 	0.08770 0.58040 0.02880 0.11200
H 	H 	0.07800 0.61140 0.80760 0.21000
H 	H 	0.05250 0.58780 0.89820 0.25800
H 	H 	0.15030 0.52820 0.83200 0.25400
H 	H 	0.24240 0.16790 0.04630 -0.00900
H 	H 	0.33820 0.07230 0.94770 0.08900
H 	H 	0.59250 0.86590 0.89030 0.21800
H 	H 	0.51070 0.89070 0.97830 0.25300
H 	H 	0.52040 0.95620 0.91160 0.24500
H 	H 	0.41190 0.36910 0.01510 -0.02800
H 	H 	0.41230 0.47120 0.91960 0.11100
H 	H 	0.42200 0.69240 0.88860 0.21000
H 	H 	0.44750 0.60180 0.91220 0.25800
H 	H 	0.34970 0.66800 0.97180 0.25300
H 	H 	0.25760 0.45370 0.33210 -0.01300
H 	H 	0.16180 0.55230 0.42770 0.09400
H 	H 	0.90750 0.60970 0.63410 0.22000
H 	H 	0.98930 0.52170 0.60930 0.25500
H 	H 	0.97960 0.58840 0.54380 0.24700
H 	H 	0.20390 0.86910 0.51510 -0.02800
H 	H 	0.19690 0.97120 0.41960 0.11200
H 	H 	0.99700 0.19240 0.38860 0.21100
H 	H 	0.03850 0.10180 0.41220 0.25900
H 	H 	0.01050 0.16800 0.47180 0.25400
H 	H 	0.95660 0.95370 0.83210 -0.00900
H 	H 	0.85820 0.05230 0.92770 0.08900
H 	H 	0.84870 0.10970 0.13410 0.21900
H 	H 	0.87970 0.02170 0.10930 0.25300
H 	H 	0.88820 0.08840 0.04380 0.24600
H 	H 	0.29610 0.98490 0.63090 -0.02900
H 	H 	0.30310 0.08040 0.52880 0.11200
H 	H 	0.50300 0.11140 0.30760 0.21000
H 	H 	0.46150 0.08780 0.39820 0.25800
H 	H 	0.48950 0.02820 0.33200 0.25300
H 	H 	0.54340 0.66790 0.54630 -0.01300
H 	H 	0.64180 0.57230 0.44770 0.09400
H 	H 	0.65130 0.36590 0.39030 0.22000
H 	H 	0.62030 0.39070 0.47830 0.25400
H 	H 	0.61180 0.45620 0.41160 0.24700
H 	H 	0.91190 0.51510 0.86910 -0.02900
H 	H 	0.91230 0.41960 0.97120 0.11200
H 	H 	0.92200 0.38860 0.19240 0.21000
H 	H 	0.94750 0.41220 0.10180 0.25800
H 	H 	0.84970 0.47180 0.16800 0.25400
H 	H 	0.75760 0.83210 0.95370 -0.00900
H 	H 	0.66180 0.92770 0.05230 0.08900
H 	H 	0.40750 0.13410 0.10970 0.21800
H 	H 	0.48930 0.10930 0.02170 0.25300
H 	H 	0.47960 0.04380 0.08840 0.24500
H 	H 	0.58810 0.63090 0.98490 -0.02800
H 	H 	0.58770 0.52880 0.08040 0.11100
H 	H 	0.57800 0.30760 0.11140 0.21000
H 	H 	0.55250 0.39820 0.08780 0.25800
H 	H 	0.65030 0.33200 0.02820 0.25300
H 	H 	0.74240 0.54630 0.66790 -0.01300
H 	H 	0.83820 0.44770 0.57230 0.09400
H 	H 	0.09250 0.39030 0.36590 0.22000
H 	H 	0.01070 0.47830 0.39070 0.25500
H 	H 	0.02040 0.41160 0.45620 0.24700
C 	C 	0.77830 0.08770 0.48010 0.15400
C 	C 	0.78040 0.02620 0.53920 -0.27200
C 	C 	0.84150 0.85010 0.61950 0.29700
C 	C 	0.95940 0.84670 0.58350 -0.80300
C 	C 	0.10340 0.05120 0.12400 0.10000
C 	C 	0.16230 0.99210 0.06590 -0.21800
C 	C 	0.27239 0.90411 0.89351 0.29400
C 	C 	0.15310 0.92280 0.90240 -0.78900
C 	C 	0.72170 0.01990 0.41230 0.15500
C 	C 	0.71960 0.96080 0.47380 -0.27300
C 	C 	0.65850 0.88050 0.64990 0.29700
C 	C 	0.54060 0.91650 0.65330 -0.80000
C 	C 	0.39660 0.37600 0.44880 0.11600
C 	C 	0.33770 0.43410 0.50790 -0.23500
C 	C 	0.22761 0.60649 0.59589 0.29700
C 	C 	0.34690 0.59760 0.57720 -0.79300
C 	C 	0.15390 0.48010 0.08770 0.15500
C 	C 	0.15420 0.53920 0.02620 -0.27300
C 	C 	0.18890 0.61950 0.85010 0.29700
C 	C 	0.11040 0.58350 0.84670 -0.80100
C 	C 	0.22140 0.12400 0.05120 0.10100
C 	C 	0.27970 0.06590 0.99210 -0.21900
C 	C 	0.42999 0.89351 0.90411 0.29400
C 	C 	0.52170 0.90240 0.92280 -0.78900
C 	C 	0.34610 0.41230 0.01990 0.15400
C 	C 	0.34580 0.47380 0.96080 -0.27300
C 	C 	0.31110 0.64990 0.88050 0.29700
C 	C 	0.38960 0.65330 0.91650 -0.80000
C 	C 	0.27860 0.44880 0.37600 0.11600
C 	C 	0.22030 0.50790 0.43410 -0.23500
C 	C 	0.07001 0.59589 0.60649 0.29700
C 	C 	0.97830 0.57720 0.59760 -0.79300
C 	C 	0.22170 0.91230 0.51990 0.15400
C 	C 	0.21960 0.97380 0.46080 -0.27200
C 	C 	0.15850 0.14990 0.38050 0.29700
C 	C 	0.04060 0.15330 0.41650 -0.80300
C 	C 	0.89660 0.94880 0.87600 0.10000
C 	C 	0.83770 0.00790 0.93410 -0.21800
C 	C 	0.72761 0.09589 0.10649 0.29400
C 	C 	0.84690 0.07720 0.09760 -0.78900
C 	C 	0.27830 0.98010 0.58770 0.15500
C 	C 	0.28040 0.03920 0.52620 -0.27300
C 	C 	0.34150 0.11950 0.35010 0.29700
C 	C 	0.45940 0.08350 0.34670 -0.80000
C 	C 	0.60340 0.62400 0.55120 0.11600
C 	C 	0.66230 0.56590 0.49210 -0.23500
C 	C 	0.77239 0.39351 0.40411 0.29700
C 	C 	0.65310 0.40240 0.42280 -0.79300
C 	C 	0.84610 0.51990 0.91230 0.15500
C 	C 	0.84580 0.46080 0.97380 -0.27300
C 	C 	0.81110 0.38050 0.14990 0.29700
C 	C 	0.88960 0.41650 0.15330 -0.80100
C 	C 	0.77860 0.87600 0.94880 0.10100
C 	C 	0.72030 0.93410 0.00790 -0.21900
C 	C 	0.57001 0.10649 0.09589 0.29400
C 	C 	0.47830 0.09760 0.07720 -0.78900
C 	C 	0.65390 0.58770 0.98010 0.15400
C 	C 	0.65420 0.52620 0.03920 -0.27300
C 	C 	0.68890 0.35010 0.11950 0.29700
C 	C 	0.61040 0.34670 0.08350 -0.80000
C 	C 	0.72140 0.55120 0.62400 0.11600
C 	C 	0.77970 0.49210 0.56590 -0.23500
C 	C 	0.92999 0.40411 0.39351 0.29700
C 	C 	0.02170 0.42280 0.40240 -0.79300
C 	C 	0.75000 0.14640 0.35360 0.46400
C 	C 	0.75000 0.08410 0.41590 -0.24100
C 	C 	0.75000 0.96330 0.53670 0.24600
C 	C 	0.75000 0.90220 0.59780 -0.30000
C 	C 	0.25000 0.35360 0.14640 0.46400
C 	C 	0.25000 0.41590 0.08410 -0.24100
C 	C 	0.25000 0.53670 0.96330 0.24700
C 	C 	0.25000 0.59780 0.90220 -0.30000
C 	C 	0.25000 0.85360 0.64640 0.46400
C 	C 	0.25000 0.91590 0.58410 -0.24100
C 	C 	0.25000 0.03670 0.46330 0.24600
C 	C 	0.25000 0.09780 0.40220 -0.30000
C 	C 	0.75000 0.64640 0.85360 0.46400
C 	C 	0.75000 0.58410 0.91590 -0.24100
C 	C 	0.75000 0.46330 0.03670 0.24700
C 	C 	0.75000 0.40220 0.09780 -0.30000
C 	C 	0.06970 0.18030 0.18030 0.37100
C 	C 	0.13280 0.11720 0.11720 -0.18900
C 	C 	0.25230 0.99770 0.99770 0.18700
C 	C 	0.31450 0.93550 0.93550 -0.28600
C 	C 	0.43030 0.31970 0.31970 0.37500
C 	C 	0.36720 0.38280 0.38280 -0.19900
C 	C 	0.24770 0.50230 0.50230 0.20100
C 	C 	0.18550 0.56450 0.56450 -0.29100
C 	C 	0.93030 0.81970 0.81970 0.37100
C 	C 	0.86720 0.88280 0.88280 -0.18900
C 	C 	0.74770 0.00230 0.00230 0.18700
C 	C 	0.68550 0.06450 0.06450 -0.28600
C 	C 	0.56970 0.68030 0.68030 0.37500
C 	C 	0.63280 0.61720 0.61720 -0.19900
C 	C 	0.75230 0.49770 0.49770 0.20100
C 	C 	0.81450 0.43550 0.43550 -0.29100
N 	N 	0.80690 0.80129 0.67851 -0.31600
N 	N 	0.35496 0.84726 0.84262 -0.31300
N 	N 	0.69310 0.82149 0.69871 -0.31600
N 	N 	0.14504 0.65738 0.65274 -0.31400
N 	N 	0.21330 0.67851 0.80129 -0.31600
N 	N 	0.45516 0.84262 0.84726 -0.31300
N 	N 	0.28670 0.69871 0.82149 -0.31600
N 	N 	0.04484 0.65274 0.65738 -0.31400
N 	N 	0.19310 0.19871 0.32149 -0.31600
N 	N 	0.64504 0.15274 0.15738 -0.31300
N 	N 	0.30690 0.17851 0.30129 -0.31600
N 	N 	0.85496 0.34262 0.34726 -0.31400
N 	N 	0.78670 0.32149 0.19871 -0.31600
N 	N 	0.54484 0.15738 0.15274 -0.31300
N 	N 	0.71330 0.30129 0.17851 -0.31600
N 	N 	0.95516 0.34726 0.34262 -0.31400
O 	O 	0.76386 0.20732 0.36516 -0.53600
O 	O 	0.98066 0.17610 0.23498 -0.51600
O 	O 	0.73614 0.13484 0.29268 -0.53600
O 	O 	0.51934 0.26502 0.32390 -0.51700
O 	O 	0.16366 0.36516 0.20732 -0.53600
O 	O 	0.10826 0.23498 0.17610 -0.51600
O 	O 	0.33634 0.29268 0.13484 -0.53600
O 	O 	0.39174 0.32390 0.26502 -0.51700
O 	O 	0.23614 0.79268 0.63484 -0.53600
O 	O 	0.01934 0.82390 0.76502 -0.51600
O 	O 	0.26386 0.86516 0.70732 -0.53600
O 	O 	0.48066 0.73498 0.67610 -0.51700
O 	O 	0.83634 0.63484 0.79268 -0.53600
O 	O 	0.89174 0.76502 0.82390 -0.51600
O 	O 	0.66366 0.70732 0.86516 -0.53600
O 	O 	0.60826 0.67610 0.73498 -0.51700
