data_crystal

_cell_length_a 9.19800
_cell_length_b 9.33000
_cell_length_c 9.63600
_cell_angle_alpha 90.00000
_cell_angle_beta  118.48000
_cell_angle_gamma 90.00000

_symmetry_space_group_name_	'P 1'
_symmetry_space_group_name_H-M	'P 1'

loop_
_symmetry_equiv_pos_as_xyz
  x,y,z

loop_
_atom_site_label
_atom_site_type_symbol
_atom_site_fract_x
_atom_site_fract_y
_atom_site_fract_z
_atom_site_charge
Zn	Zn	0.91601 0.44079 0.13712 1.18900
Zn	Zn	0.08399 0.94079 0.86288 1.18200
H 	H 	0.63510 0.50880 0.07000 0.11500
H 	H 	0.66310 0.36690 0.13780 0.12500
H 	H 	0.03520 0.74360 0.09290 -0.04800
H 	H 	0.82730 0.57150 0.52940 0.09300
H 	H 	0.85120 0.73800 0.54310 0.08700
H 	H 	0.10580 0.43210 0.65620 0.16100
H 	H 	0.83800 0.44800 0.77240 0.03800
H 	H 	0.12860 0.71910 0.62420 0.03400
H 	H 	0.33070 0.28860 0.78540 0.15200
H 	H 	0.36340 0.34940 0.94970 0.15600
H 	H 	0.58250 0.41410 0.83810 -0.04700
H 	H 	0.59530 0.26440 0.91500 -0.04700
H 	H 	0.36490 0.00880 0.93000 0.13700
H 	H 	0.33690 0.86690 0.86220 0.12600
H 	H 	0.96480 0.24360 0.90710 -0.04300
H 	H 	0.17270 0.07150 0.47060 0.09400
H 	H 	0.14880 0.23800 0.45690 0.08300
H 	H 	0.89420 0.93210 0.34380 0.15100
H 	H 	0.16200 0.94800 0.22760 0.00100
H 	H 	0.87140 0.21910 0.37580 0.03900
H 	H 	0.66930 0.78860 0.21460 0.15700
H 	H 	0.63660 0.84940 0.05030 0.15800
H 	H 	0.41750 0.91410 0.16190 -0.05800
H 	H 	0.40470 0.76440 0.08500 -0.05300
C 	C 	0.99400 0.69490 0.99730 0.11200
C 	C 	0.90230 0.64750 0.59110 -0.22700
C 	C 	0.88610 0.53360 0.82260 -0.06100
C 	C 	0.06310 0.63160 0.58250 -0.01200
C 	C 	0.01490 0.61830 0.40830 0.33600
C 	C 	0.30840 0.50910 0.78350 0.31500
C 	C 	0.92330 0.64240 0.75540 0.10700
C 	C 	0.38300 0.36540 0.86100 -0.42800
C 	C 	0.56360 0.36340 0.91590 0.19800
C 	C 	0.00600 0.19490 0.00270 0.10900
C 	C 	0.09770 0.14750 0.40890 -0.20500
C 	C 	0.11390 0.03360 0.17740 -0.00200
C 	C 	0.93690 0.13160 0.41750 -0.02400
C 	C 	0.98510 0.11830 0.59170 0.34800
C 	C 	0.69160 0.00910 0.21650 0.33100
C 	C 	0.07670 0.14240 0.24460 0.08700
C 	C 	0.61700 0.86540 0.13900 -0.45400
C 	C 	0.43640 0.86340 0.08410 0.21200
N 	N 	0.67300 0.42090 0.06540 -0.41600
N 	N 	0.99500 0.74990 0.87180 -0.29500
N 	N 	0.15770 0.51240 0.67570 -0.25500
N 	N 	0.92880 0.56590 0.97640 -0.27300
N 	N 	0.32700 0.92090 0.93460 -0.43700
N 	N 	0.00500 0.24990 0.12820 -0.29200
N 	N 	0.84230 0.01240 0.32430 -0.24800
N 	N 	0.07120 0.06590 0.02360 -0.27500
O 	O 	0.00670 0.49360 0.35660 -0.48800
O 	O 	0.98820 0.72660 0.32910 -0.33900
O 	O 	0.38670 0.62730 0.83040 -0.28600
O 	O 	0.99330 0.99360 0.64340 -0.49800
O 	O 	0.01180 0.22660 0.67090 -0.33500
O 	O 	0.61330 0.12730 0.16960 -0.28700
