data_crystal

_cell_length_a 8.96870
_cell_length_b 10.90600
_cell_length_c 14.58500
_cell_angle_alpha 96.56700
_cell_angle_beta  90.00000
_cell_angle_gamma 90.00000

_symmetry_space_group_name_	'P 1'
_symmetry_space_group_name_H-M	'P 1'

loop_
_symmetry_equiv_pos_as_xyz
  x,y,z

loop_
_atom_site_label
_atom_site_type_symbol
_atom_site_fract_x
_atom_site_fract_y
_atom_site_fract_z
_atom_site_charge
Zn	Zn	0.25328 0.06520 0.28097 1.19100
Zn	Zn	0.74755 0.36913 0.18782 1.19000
Zn	Zn	0.75328 0.93480 0.71903 1.18600
Zn	Zn	0.24755 0.63087 0.81218 1.19200
H 	H 	0.14350 0.42660 0.75810 0.12300
H 	H 	0.15600 0.49610 0.67710 0.09600
H 	H 	0.55040 0.20000 0.27930 -0.03200
H 	H 	0.24820 0.18490 0.08170 0.02900
H 	H 	0.56160 0.51470 0.06370 0.02800
H 	H 	0.36360 0.33280 0.97400 0.09600
H 	H 	0.54150 0.32520 0.97640 0.09200
H 	H 	0.25740 0.60300 0.28800 0.12200
H 	H 	0.15610 0.64970 0.20870 0.13000
H 	H 	0.12340 0.87830 0.21060 0.09000
H 	H 	0.27720 0.87470 0.17320 0.09500
H 	H 	0.19640 0.79930 0.34180 0.00800
H 	H 	0.36630 0.80660 0.31000 0.00300
H 	H 	0.25850 0.73280 0.61410 0.04100
H 	H 	0.25870 0.50460 0.10220 0.15400
H 	H 	0.60640 0.02980 0.54410 0.03500
H 	H 	0.32870 0.04980 0.61460 0.14200
H 	H 	0.38710 0.36300 0.74460 -0.01000
H 	H 	0.40640 0.44280 0.65980 -0.00500
H 	H 	0.55010 0.77710 0.81830 -0.04100
H 	H 	0.21680 0.23170 0.65960 0.13300
H 	H 	0.22280 0.31490 0.57620 0.12300
H 	H 	0.38190 0.84720 0.49500 0.09900
H 	H 	0.55690 0.82380 0.49840 0.08600
H 	H 	0.64350 0.57340 0.24190 0.11900
H 	H 	0.65600 0.50390 0.32290 0.09100
H 	H 	0.05040 0.80000 0.72070 -0.03700
H 	H 	0.74820 0.81510 0.91830 0.02400
H 	H 	0.06160 0.48530 0.93630 0.05000
H 	H 	0.86360 0.66720 0.02600 0.09200
H 	H 	0.04150 0.67480 0.02360 0.11100
H 	H 	0.75740 0.39700 0.71200 0.10900
H 	H 	0.65610 0.35030 0.79130 0.11900
H 	H 	0.62340 0.12170 0.78940 0.08400
H 	H 	0.77720 0.12530 0.82680 0.09200
H 	H 	0.69640 0.20070 0.65820 0.00700
H 	H 	0.86630 0.19340 0.69000 0.00000
H 	H 	0.75850 0.26720 0.38590 0.04200
H 	H 	0.75870 0.49540 0.89780 0.15300
H 	H 	0.10640 0.97020 0.45590 0.00800
H 	H 	0.82870 0.95020 0.38540 0.14200
H 	H 	0.88710 0.63700 0.25540 -0.01700
H 	H 	0.90640 0.55720 0.34020 -0.01300
H 	H 	0.05010 0.22290 0.18170 -0.04500
H 	H 	0.71680 0.76830 0.34040 0.12600
H 	H 	0.72280 0.68510 0.42380 0.11400
H 	H 	0.88190 0.15280 0.50500 0.12700
H 	H 	0.05690 0.17620 0.50160 0.13400
C 	C 	0.50000 0.21320 0.22400 0.06600
C 	C 	0.33550 0.20510 0.11710 -0.06100
C 	C 	0.44410 0.28330 0.09440 0.10900
C 	C 	0.43910 0.55210 0.94760 0.29700
C 	C 	0.46050 0.49250 0.03800 0.00200
C 	C 	0.45240 0.35270 0.01310 -0.23400
C 	C 	0.25330 0.66100 0.24060 -0.32300
C 	C 	0.26320 0.79120 0.28740 0.06600
C 	C 	0.45760 0.82840 0.62280 0.11500
C 	C 	0.34380 0.75840 0.65000 -0.06800
C 	C 	0.48140 0.02650 0.42290 0.32100
C 	C 	0.50210 0.00790 0.52430 -0.00500
C 	C 	0.37540 0.63000 0.17220 0.28400
C 	C 	0.33470 0.39350 0.69190 0.07900
C 	C 	0.50290 0.78190 0.76050 0.07100
C 	C 	0.28260 0.28400 0.62580 -0.33200
C 	C 	0.47380 0.87070 0.53030 -0.22700
C 	C 	0.40610 0.20730 0.58340 0.28700
C 	C 	-0.00000 0.78680 0.77600 0.10000
C 	C 	0.83550 0.79490 0.88290 -0.05900
C 	C 	0.94410 0.71670 0.90560 0.08600
C 	C 	0.93910 0.44790 0.05240 0.26200
C 	C 	0.96050 0.50750 0.96200 -0.02000
C 	C 	0.95240 0.64730 0.98690 -0.25000
C 	C 	0.75330 0.33900 0.75940 -0.30000
C 	C 	0.76320 0.20880 0.71260 0.05500
C 	C 	0.95760 0.17160 0.37720 0.12300
C 	C 	0.84380 0.24160 0.35000 -0.08100
C 	C 	0.98140 0.97350 0.57710 0.23300
C 	C 	0.00210 0.99210 0.47570 0.10100
C 	C 	0.87540 0.37000 0.82780 0.24400
C 	C 	0.83470 0.60650 0.30810 0.07400
C 	C 	0.00290 0.21810 0.23950 0.10400
C 	C 	0.78260 0.71600 0.37420 -0.31600
C 	C 	0.97380 0.12930 0.46970 -0.33500
C 	C 	0.90610 0.79270 0.41660 0.24800
N 	N 	0.20700 0.47420 0.72750 -0.37800
N 	N 	0.37300 0.73060 0.73820 -0.27000
N 	N 	0.36990 0.15920 0.19900 -0.27300
N 	N 	0.55360 0.28770 0.16420 -0.29300
N 	N 	0.22230 0.88830 0.22660 -0.37000
N 	N 	0.56330 0.84280 0.69250 -0.29400
N 	N 	0.34790 0.53850 0.10560 -0.23700
N 	N 	0.39650 0.08360 0.58190 -0.23100
N 	N 	0.70700 0.52580 0.27250 -0.37700
N 	N 	0.87300 0.26940 0.26180 -0.28500
N 	N 	0.86990 0.84080 0.80100 -0.29300
N 	N 	0.05360 0.71230 0.83580 -0.28300
N 	N 	0.72230 0.11170 0.77340 -0.36600
N 	N 	0.06330 0.15720 0.30750 -0.28800
N 	N 	0.84790 0.46150 0.89440 -0.22900
N 	N 	0.89650 0.91640 0.41810 -0.25100
O 	O 	0.31230 0.60280 0.93500 -0.46100
O 	O 	0.54310 0.54420 0.89020 -0.31900
O 	O 	0.35150 0.06090 0.40000 -0.46000
O 	O 	0.50010 0.68080 0.18040 -0.28400
O 	O 	0.58920 0.00020 0.36940 -0.29900
O 	O 	0.51530 0.25510 0.54730 -0.26300
O 	O 	0.81230 0.39720 0.06500 -0.46000
O 	O 	0.04310 0.45580 0.10980 -0.29100
O 	O 	0.85150 0.93910 0.60000 -0.45000
O 	O 	0.00010 0.31920 0.81960 -0.25100
O 	O 	0.08920 0.99980 0.63060 -0.26000
O 	O 	0.01530 0.74490 0.45270 -0.22800
