data_crystal

_cell_length_a 7.14090
_cell_length_b 7.14090
_cell_length_c 7.60680
_cell_angle_alpha 90.00000
_cell_angle_beta  90.00000
_cell_angle_gamma 90.00000

_symmetry_space_group_name_	'P 1'
_symmetry_space_group_name_H-M	'P 1'

loop_
_symmetry_equiv_pos_as_xyz
  x,y,z

loop_
_atom_site_label
_atom_site_type_symbol
_atom_site_fract_x
_atom_site_fract_y
_atom_site_fract_z
_atom_site_charge
Zn	Zn	0.50000 0.50000 0.50000 1.26000
Si	Si	0.50000 0.50000 -0.00000 3.23900
H 	H 	0.50000 0.83860 0.75150 0.10500
H 	H 	0.50000 0.16140 0.75150 0.10500
H 	H 	0.16140 0.50000 0.75150 0.10500
H 	H 	0.83860 0.50000 0.75150 0.10500
H 	H 	0.50000 0.83860 0.24850 0.09800
H 	H 	0.50000 0.16140 0.24850 0.09800
H 	H 	0.83860 0.50000 0.24850 0.09800
H 	H 	0.16140 0.50000 0.24850 0.09800
C 	C 	0.50000 0.90140 0.64450 0.03800
C 	C 	0.50000 0.09860 0.64450 0.03800
C 	C 	0.09860 0.50000 0.64450 0.03800
C 	C 	0.90140 0.50000 0.64450 0.03800
C 	C 	0.50000 0.90140 0.35550 0.03700
C 	C 	0.50000 0.09860 0.35550 0.03700
C 	C 	0.90140 0.50000 0.35550 0.03700
C 	C 	0.09860 0.50000 0.35550 0.03700
N 	N 	0.50000 0.80420 0.50000 -0.18800
N 	N 	0.50000 0.19580 0.50000 -0.18800
N 	N 	0.19580 0.50000 0.50000 -0.18800
N 	N 	0.80420 0.50000 0.50000 -0.18800
F 	F 	0.50000 0.50000 0.77040 -0.86100
F 	F 	0.50000 0.50000 0.22960 -0.87000
F 	F 	0.66410 0.66410 -0.00000 -0.78200
F 	F 	0.33590 0.33590 -0.00000 -0.78200
F 	F 	0.33590 0.66410 -0.00000 -0.78200
F 	F 	0.66410 0.33590 -0.00000 -0.78200
