data_crystal

_cell_length_a 11.62680
_cell_length_b 15.65400
_cell_length_c 15.94670
_cell_angle_alpha 90.00000
_cell_angle_beta  90.00000
_cell_angle_gamma 90.00000

_symmetry_space_group_name_	'P 1'
_symmetry_space_group_name_H-M	'P 1'

loop_
_symmetry_equiv_pos_as_xyz
  x,y,z

loop_
_atom_site_label
_atom_site_type_symbol
_atom_site_fract_x
_atom_site_fract_y
_atom_site_fract_z
_atom_site_charge
Zn	Zn	0.14197 -0.00000 0.57976 1.17000
Zn	Zn	0.14297 0.00000 0.76191 1.17100
Zn	Zn	0.64197 0.00000 0.42024 1.16900
Zn	Zn	0.64297 0.00000 0.23809 1.17100
H 	H 	0.30710 0.74900 0.56880 0.03900
H 	H 	0.58310 0.72180 0.78020 0.09000
H 	H 	0.45480 0.83360 0.77720 0.07400
H 	H 	0.85640 0.63950 0.79300 0.06800
H 	H 	0.98340 0.75090 0.78170 0.04600
H 	H 	0.42550 0.63130 0.56930 0.07000
H 	H 	0.83260 0.82110 0.56420 0.07300
H 	H 	0.70940 0.70490 0.57280 0.07200
H 	H 	0.30710 0.25100 0.56880 0.02800
H 	H 	0.58310 0.27820 0.78020 0.08100
H 	H 	0.45480 0.16640 0.77720 0.01900
H 	H 	0.85640 0.36050 0.79300 0.07300
H 	H 	0.98340 0.24910 0.78170 0.02100
H 	H 	0.42550 0.36870 0.56930 0.07600
H 	H 	0.83260 0.17890 0.56420 0.03500
H 	H 	0.70940 0.29510 0.57280 0.07800
H 	H 	0.32000 0.00000 0.30020 0.11000
H 	H 	0.97430 0.00000 0.43560 -0.08700
H 	H 	0.30990 0.00000 0.44180 -0.03700
H 	H 	0.97790 0.00000 0.28970 0.02200
H 	H 	0.92780 0.00000 0.02810 0.05600
H 	H 	0.96210 0.00000 0.88780 -0.08100
H 	H 	0.28810 -0.00000 0.91740 -0.04900
H 	H 	0.27270 0.00000 0.06120 0.10900
H 	H 	0.84180 0.50000 0.67310 0.05100
H 	H 	0.44910 0.50000 0.69870 0.06600
H 	H 	0.80710 0.25100 0.43120 0.01700
H 	H 	0.08310 0.27820 0.21980 0.07200
H 	H 	0.95480 0.16640 0.22280 0.02800
H 	H 	0.35640 0.36050 0.20700 0.08200
H 	H 	0.48340 0.24910 0.21830 0.02400
H 	H 	0.92550 0.36870 0.43070 0.08700
H 	H 	0.33260 0.17890 0.43580 0.03100
H 	H 	0.20940 0.29510 0.42720 0.08900
H 	H 	0.80710 0.74900 0.43120 0.02800
H 	H 	0.08310 0.72180 0.21980 0.08000
H 	H 	0.95480 0.83360 0.22280 0.08200
H 	H 	0.35640 0.63950 0.20700 0.07800
H 	H 	0.48340 0.75090 0.21830 0.04900
H 	H 	0.92550 0.63130 0.43070 0.08100
H 	H 	0.33260 0.82110 0.43580 0.06800
H 	H 	0.20940 0.70490 0.42720 0.08300
H 	H 	0.82000 0.00000 0.69980 0.10300
H 	H 	0.47430 -0.00000 0.56440 -0.04000
H 	H 	0.80990 0.00000 0.55820 -0.04600
H 	H 	0.47790 0.00000 0.71030 0.06800
H 	H 	0.42780 -0.00000 0.97190 0.10100
H 	H 	0.46210 0.00000 0.11220 -0.03000
H 	H 	0.78810 0.00000 0.08260 -0.05100
H 	H 	0.77270 0.00000 0.93880 0.10500
H 	H 	0.34180 0.50000 0.32690 0.06400
H 	H 	0.94910 0.50000 0.30130 -0.01100
C 	C 	0.91640 0.80500 0.67290 -0.02300
C 	C 	0.99140 0.87860 0.67590 0.18700
C 	C 	0.37320 0.80180 0.67440 -0.08300
C 	C 	0.29290 0.88120 0.66730 0.41500
C 	C 	0.51530 0.65590 0.67710 0.05000
C 	C 	0.77560 0.66210 0.68230 0.05100
C 	C 	0.70840 0.57950 0.68030 -0.01000
C 	C 	0.58990 0.57790 0.68510 0.00200
C 	C 	0.36130 0.74180 0.61100 0.03900
C 	C 	0.52650 0.72420 0.73910 -0.09000
C 	C 	0.45110 0.79230 0.73540 0.04700
C 	C 	0.85390 0.67590 0.74690 -0.08800
C 	C 	0.92650 0.74360 0.74130 -0.00200
C 	C 	0.43200 0.67110 0.61230 -0.09900
C 	C 	0.83700 0.78550 0.61070 0.00100
C 	C 	0.76370 0.71530 0.61430 -0.08500
C 	C 	0.91640 0.19500 0.67290 -0.08500
C 	C 	0.99140 0.12140 0.67590 0.23700
C 	C 	0.37320 0.19820 0.67440 -0.12600
C 	C 	0.29290 0.11880 0.66730 0.41000
C 	C 	0.51530 0.34410 0.67710 0.05800
C 	C 	0.77560 0.33790 0.68230 0.06700
C 	C 	0.70840 0.42050 0.68030 -0.01600
C 	C 	0.58990 0.42210 0.68510 -0.00100
C 	C 	0.36130 0.25820 0.61100 0.05700
C 	C 	0.52650 0.27580 0.73910 -0.11800
C 	C 	0.45110 0.20770 0.73540 0.06500
C 	C 	0.85390 0.32410 0.74690 -0.12200
C 	C 	0.92650 0.25640 0.74130 0.02600
C 	C 	0.43200 0.32890 0.61230 -0.11800
C 	C 	0.83700 0.21450 0.61070 0.03000
C 	C 	0.76370 0.28470 0.61430 -0.12100
C 	C 	0.09870 0.00000 0.05950 0.15900
C 	C 	0.24860 0.00000 0.32650 -0.21500
C 	C 	0.04470 0.00000 0.40780 0.13500
C 	C 	0.24180 0.00000 0.41120 0.10500
C 	C 	0.14840 -0.00000 0.27890 0.14300
C 	C 	0.04650 0.00000 0.31980 -0.14500
C 	C 	0.00250 0.00000 0.00730 -0.17300
C 	C 	0.02560 0.00000 0.92320 0.17000
C 	C 	0.21450 0.00000 0.94030 0.11700
C 	C 	0.20760 0.00000 0.02730 -0.22400
C 	C 	0.76210 0.50000 0.67740 -0.06200
C 	C 	0.52840 0.50000 0.69100 -0.07300
C 	C 	0.41640 0.19500 0.32710 -0.12000
C 	C 	0.49140 0.12140 0.32410 0.34600
C 	C 	0.87320 0.19820 0.32560 -0.12200
C 	C 	0.79290 0.11880 0.33270 0.40300
C 	C 	0.01530 0.34410 0.32290 0.11400
C 	C 	0.27560 0.33790 0.31770 0.07200
C 	C 	0.20840 0.42050 0.31970 0.01200
C 	C 	0.08990 0.42210 0.31490 -0.05200
C 	C 	0.86130 0.25820 0.38900 0.07000
C 	C 	0.02650 0.27580 0.26090 -0.06700
C 	C 	0.95110 0.20770 0.26460 -0.00300
C 	C 	0.35390 0.32410 0.25310 -0.13200
C 	C 	0.42650 0.25640 0.25870 0.05300
C 	C 	0.93200 0.32890 0.38770 -0.18700
C 	C 	0.33700 0.21450 0.38930 0.06100
C 	C 	0.26370 0.28470 0.38570 -0.13400
C 	C 	0.41640 0.80500 0.32710 -0.05900
C 	C 	0.49140 0.87860 0.32410 0.30300
C 	C 	0.87320 0.80180 0.32560 -0.07900
C 	C 	0.79290 0.88120 0.33270 0.40800
C 	C 	0.01530 0.65590 0.32290 0.10600
C 	C 	0.27560 0.66210 0.31770 0.05600
C 	C 	0.20840 0.57950 0.31970 0.01800
C 	C 	0.08990 0.57790 0.31490 -0.04900
C 	C 	0.86130 0.74180 0.38900 0.05100
C 	C 	0.02650 0.72420 0.26090 -0.03600
C 	C 	0.95110 0.79230 0.26460 -0.02400
C 	C 	0.35390 0.67590 0.25310 -0.09800
C 	C 	0.42650 0.74360 0.25870 0.02700
C 	C 	0.93200 0.67110 0.38770 -0.16900
C 	C 	0.33700 0.78550 0.38930 0.03400
C 	C 	0.26370 0.71530 0.38570 -0.09900
C 	C 	0.59870 -0.00000 0.94050 0.16800
C 	C 	0.74860 -0.00000 0.67350 -0.22300
C 	C 	0.54470 0.00000 0.59220 0.08300
C 	C 	0.74180 -0.00000 0.58880 0.10800
C 	C 	0.64840 0.00000 0.72110 0.15700
C 	C 	0.54650 0.00000 0.68020 -0.20900
C 	C 	0.50250 -0.00000 0.99270 -0.22800
C 	C 	0.52560 0.00000 0.07680 0.11500
C 	C 	0.71450 0.00000 0.05970 0.11100
C 	C 	0.70760 -0.00000 0.97270 -0.22600
C 	C 	0.26210 0.50000 0.32260 -0.08400
C 	C 	0.02840 0.50000 0.30900 0.05300
N 	N 	0.14260 0.00000 0.45300 -0.29600
N 	N 	0.16620 0.00000 0.18910 -0.10500
N 	N 	0.12730 -0.00000 0.88600 -0.30800
N 	N 	0.07830 0.00000 0.14880 -0.10500
N 	N 	0.64260 0.00000 0.54700 -0.29100
N 	N 	0.66620 -0.00000 0.81090 -0.11200
N 	N 	0.62730 0.00000 0.11400 -0.30200
N 	N 	0.57830 -0.00000 0.85120 -0.11900
O 	O 	0.24920 0.90060 0.60370 -0.42400
O 	O 	0.00530 0.91700 0.60160 -0.24600
O 	O 	0.24170 0.89780 0.73760 -0.39500
O 	O 	0.00170 0.92160 0.74100 -0.23900
O 	O 	0.24920 0.09940 0.60370 -0.51700
O 	O 	0.00530 0.08300 0.60160 -0.37600
O 	O 	0.24170 0.10220 0.73760 -0.48800
O 	O 	0.00170 0.07840 0.74100 -0.38600
O 	O 	0.74920 0.09940 0.39630 -0.52100
O 	O 	0.50530 0.08300 0.39840 -0.43300
O 	O 	0.74170 0.10220 0.26240 -0.49500
O 	O 	0.50170 0.07840 0.25900 -0.45000
O 	O 	0.74920 0.90060 0.39630 -0.42900
O 	O 	0.50530 0.91700 0.39840 -0.30400
O 	O 	0.74170 0.89780 0.26240 -0.40200
O 	O 	0.50170 0.92160 0.25900 -0.30400
