data_crystal

_cell_length_a 16.54130
_cell_length_b 16.59560
_cell_length_c 16.59570
_cell_angle_alpha 109.53700
_cell_angle_beta  109.40500
_cell_angle_gamma 109.40500

_symmetry_space_group_name_	'P 1'
_symmetry_space_group_name_H-M	'P 1'

loop_
_symmetry_equiv_pos_as_xyz
  x,y,z

loop_
_atom_site_label
_atom_site_type_symbol
_atom_site_fract_x
_atom_site_fract_y
_atom_site_fract_z
_atom_site_charge
Fe	Fe	0.47384 0.40143 -0.00000 1.13000
Fe	Fe	0.47384 0.00000 0.40143 1.12900
Fe	Fe	0.07241 0.59857 0.59857 1.13100
Fe	Fe	0.92759 0.40143 0.40143 1.14800
Fe	Fe	0.52616 -0.00000 0.59857 1.13100
Fe	Fe	0.52616 0.59857 -0.00000 1.13100
H 	H 	0.20160 0.23250 0.73610 0.02000
H 	H 	0.21400 0.17400 0.53630 -0.10200
H 	H 	0.24340 0.07300 0.42310 0.28800
H 	H 	0.46550 0.26390 0.49640 0.03800
H 	H 	0.67770 0.46370 0.63770 0.05500
H 	H 	0.82030 0.57690 0.64990 0.04400
H 	H 	0.96910 0.50360 0.76750 0.07100
H 	H 	0.04000 0.36230 0.82600 0.21100
H 	H 	0.17040 0.35010 0.92700 -0.20800
H 	H 	0.03090 0.23250 0.49640 0.01300
H 	H 	0.96000 0.17400 0.63770 -0.10200
H 	H 	0.82960 0.07300 0.64990 0.30100
H 	H 	0.79840 0.26390 0.76750 0.06500
H 	H 	0.78600 0.46370 0.82600 0.22300
H 	H 	0.75660 0.57690 0.92700 -0.21400
H 	H 	0.53450 0.50360 0.73610 0.04700
H 	H 	0.32230 0.36230 0.53630 0.06000
H 	H 	0.17970 0.35010 0.42310 0.03900
H 	H 	0.79840 0.76750 0.26390 0.06500
H 	H 	0.78600 0.82600 0.46370 0.22300
H 	H 	0.75660 0.92700 0.57690 -0.21400
H 	H 	0.53450 0.73610 0.50360 0.04700
H 	H 	0.32230 0.53630 0.36230 0.06000
H 	H 	0.17970 0.42310 0.35010 0.03900
H 	H 	0.03090 0.49640 0.23250 0.01300
H 	H 	0.96000 0.63770 0.17400 -0.10200
H 	H 	0.82960 0.64990 0.07300 0.30100
H 	H 	0.96910 0.76750 0.50360 0.07100
H 	H 	0.04000 0.82600 0.36230 0.21100
H 	H 	0.17040 0.92700 0.35010 -0.20800
H 	H 	0.20160 0.73610 0.23250 0.02000
H 	H 	0.21400 0.53630 0.17400 -0.10200
H 	H 	0.24340 0.42310 0.07300 0.28800
H 	H 	0.46550 0.49640 0.26390 0.03800
H 	H 	0.67770 0.63770 0.46370 0.05500
H 	H 	0.82030 0.64990 0.57690 0.04400
H 	H 	0.24540 0.49080 0.74540 0.02500
H 	H 	0.50000 0.25460 0.74540 0.03400
H 	H 	0.75460 0.25460 0.50920 0.04100
H 	H 	0.75460 0.50920 0.25460 0.04100
H 	H 	0.50000 0.74540 0.25460 0.03400
H 	H 	0.24540 0.74540 0.49080 0.02500
C 	C 	0.32830 0.42340 0.85420 0.39500
C 	C 	0.24010 0.36920 0.75420 -0.14400
C 	C 	0.18540 0.26720 0.70380 0.05200
C 	C 	0.08810 0.05360 0.50010 -0.31500
C 	C 	0.17250 0.10420 0.49780 0.39900
C 	C 	0.19080 0.04170 0.43280 -0.79100
C 	C 	0.47410 0.14580 0.56920 0.38400
C 	C 	0.48590 0.24580 0.61500 -0.11700
C 	C 	0.48160 0.29620 0.56340 -0.01000
C 	C 	0.58800 0.49990 0.55350 0.01400
C 	C 	0.67470 0.50220 0.60640 -0.06500
C 	C 	0.75800 0.56720 0.60890 -0.02700
C 	C 	0.90490 0.43080 0.57660 0.37300
C 	C 	0.87090 0.38500 0.63080 -0.08000
C 	C 	0.91820 0.43660 0.73280 -0.07000
C 	C 	0.03450 0.44650 0.94640 0.32400
C 	C 	0.06830 0.39360 0.89580 -0.53300
C 	C 	0.14910 0.39110 0.95830 0.73400
C 	C 	0.09510 0.42340 0.56920 0.39600
C 	C 	0.12910 0.36920 0.61500 -0.14900
C 	C 	0.08180 0.26720 0.56340 0.05200
C 	C 	0.96550 0.05360 0.55350 -0.30700
C 	C 	0.93170 0.10420 0.60640 0.41500
C 	C 	0.85090 0.04170 0.60890 -0.81800
C 	C 	0.67170 0.14580 0.57660 0.37300
C 	C 	0.75990 0.24580 0.63080 -0.08500
C 	C 	0.81460 0.29620 0.73280 -0.07000
C 	C 	0.91190 0.49990 0.94640 0.35300
C 	C 	0.82750 0.50220 0.89580 -0.55100
C 	C 	0.80920 0.56720 0.95830 0.76800
C 	C 	0.52590 0.43080 0.85420 0.38300
C 	C 	0.51410 0.38500 0.75420 -0.11100
C 	C 	0.51840 0.43660 0.70380 -0.01000
C 	C 	0.41200 0.44650 0.50010 0.01500
C 	C 	0.32530 0.39360 0.49780 -0.07000
C 	C 	0.24200 0.39110 0.43280 -0.02700
C 	C 	0.67170 0.57660 0.14580 0.37300
C 	C 	0.75990 0.63080 0.24580 -0.08500
C 	C 	0.81460 0.73280 0.29620 -0.07000
C 	C 	0.91190 0.94640 0.49990 0.35300
C 	C 	0.82750 0.89580 0.50220 -0.55100
C 	C 	0.80920 0.95830 0.56720 0.76800
C 	C 	0.52590 0.85420 0.43080 0.38300
C 	C 	0.51410 0.75420 0.38500 -0.11100
C 	C 	0.51840 0.70380 0.43660 -0.01000
C 	C 	0.41200 0.50010 0.44650 0.01500
C 	C 	0.32530 0.49780 0.39360 -0.07000
C 	C 	0.24200 0.43280 0.39110 -0.02700
C 	C 	0.09510 0.56920 0.42340 0.39600
C 	C 	0.12910 0.61500 0.36920 -0.14900
C 	C 	0.08180 0.56340 0.26720 0.05200
C 	C 	0.96550 0.55350 0.05360 -0.30700
C 	C 	0.93170 0.60640 0.10420 0.41500
C 	C 	0.85090 0.60890 0.04170 -0.81800
C 	C 	0.90490 0.57660 0.43080 0.37300
C 	C 	0.87090 0.63080 0.38500 -0.08000
C 	C 	0.91820 0.73280 0.43660 -0.07000
C 	C 	0.03450 0.94640 0.44650 0.32400
C 	C 	0.06830 0.89580 0.39360 -0.53300
C 	C 	0.14910 0.95830 0.39110 0.73400
C 	C 	0.32830 0.85420 0.42340 0.39500
C 	C 	0.24010 0.75420 0.36920 -0.14400
C 	C 	0.18540 0.70380 0.26720 0.05200
C 	C 	0.08810 0.50010 0.05360 -0.31500
C 	C 	0.17250 0.49780 0.10420 0.39900
C 	C 	0.19080 0.43280 0.04170 -0.79100
C 	C 	0.47410 0.56920 0.14580 0.38400
C 	C 	0.48590 0.61500 0.24580 -0.11700
C 	C 	0.48160 0.56340 0.29620 -0.01000
C 	C 	0.58800 0.55350 0.49990 0.01400
C 	C 	0.67470 0.60640 0.50220 -0.06500
C 	C 	0.75800 0.60890 0.56720 -0.02700
C 	C 	0.21040 0.42080 0.71040 0.07400
C 	C 	0.10690 0.21380 0.60690 -0.10300
C 	C 	0.05150 0.10300 0.55150 0.18100
C 	C 	0.50000 0.28960 0.71040 0.04500
C 	C 	0.50000 0.39310 0.60690 -0.00300
C 	C 	0.50000 0.44850 0.55150 -0.02900
C 	C 	0.78960 0.28960 0.57920 0.01800
C 	C 	0.89310 0.39310 0.78620 0.09600
C 	C 	0.94850 0.44850 0.89700 -0.23600
C 	C 	0.78960 0.57920 0.28960 0.01800
C 	C 	0.89310 0.78620 0.39310 0.09600
C 	C 	0.94850 0.89700 0.44850 -0.23600
C 	C 	0.50000 0.71040 0.28960 0.04500
C 	C 	0.50000 0.60690 0.39310 -0.00300
C 	C 	0.50000 0.55150 0.44850 -0.02900
C 	C 	0.21040 0.71040 0.42080 0.07400
C 	C 	0.10690 0.60690 0.21380 -0.10300
C 	C 	0.05150 0.55150 0.10300 0.18100
O 	O 	0.34515 0.37438 0.89347 -0.45900
O 	O 	0.37900 0.51640 0.89320 -0.44300
O 	O 	0.45168 0.10653 0.48091 -0.47400
O 	O 	0.48580 0.10680 0.62320 -0.45200
O 	O 	0.97077 0.51909 0.62562 -0.45200
O 	O 	0.86260 0.37680 0.48360 -0.44400
O 	O 	0.02923 0.37438 0.48091 -0.48000
O 	O 	0.13740 0.51640 0.62320 -0.45400
O 	O 	0.65485 0.10653 0.62562 -0.46900
O 	O 	0.62100 0.10680 0.48360 -0.45100
O 	O 	0.54832 0.51909 0.89347 -0.45300
O 	O 	0.51420 0.37680 0.89320 -0.44100
O 	O 	0.65485 0.62562 0.10653 -0.46900
O 	O 	0.62100 0.48360 0.10680 -0.45100
O 	O 	0.54832 0.89347 0.51909 -0.45300
O 	O 	0.51420 0.89320 0.37680 -0.44100
O 	O 	0.02923 0.48091 0.37438 -0.48000
O 	O 	0.13740 0.62320 0.51640 -0.45400
O 	O 	0.97077 0.62562 0.51909 -0.45200
O 	O 	0.86260 0.48360 0.37680 -0.44400
O 	O 	0.34515 0.89347 0.37438 -0.45900
O 	O 	0.37900 0.89320 0.51640 -0.44300
O 	O 	0.45168 0.48091 0.10653 -0.47400
O 	O 	0.48580 0.62320 0.10680 -0.45200
