data_crystal

_cell_length_a 10.13650
_cell_length_b 11.41340
_cell_length_c 29.27940
_cell_angle_alpha 90.00000
_cell_angle_beta  90.00000
_cell_angle_gamma 90.00000

_symmetry_space_group_name_	'P 1'
_symmetry_space_group_name_H-M	'P 1'

loop_
_symmetry_equiv_pos_as_xyz
  x,y,z

loop_
_atom_site_label
_atom_site_type_symbol
_atom_site_fract_x
_atom_site_fract_y
_atom_site_fract_z
_atom_site_charge
Zn	Zn	0.34139 0.31538 0.00698 1.23800
Zn	Zn	0.03469 0.43019 0.00623 1.20900
Zn	Zn	0.15861 0.68462 0.50698 1.23700
Zn	Zn	0.46531 0.56981 0.50623 1.20800
Zn	Zn	0.65861 0.81538 0.49302 1.23700
Zn	Zn	0.96531 0.93019 0.49377 1.20800
Zn	Zn	0.84139 0.18462 0.99302 1.23700
Zn	Zn	0.53469 0.06981 0.99377 1.20800
H 	H 	0.24920 0.01870 0.97790 0.02900
H 	H 	0.13390 0.87170 0.02000 0.05500
H 	H 	0.09020 0.77350 0.08880 0.02100
H 	H 	0.16450 0.85250 0.15780 0.05300
H 	H 	0.27410 0.03260 0.15880 0.02500
H 	H 	0.31440 0.13180 0.08980 0.05700
H 	H 	0.03530 0.48760 0.86630 0.02200
H 	H 	0.05000 0.51720 0.78770 0.06400
H 	H 	0.44690 0.47520 0.79370 0.06400
H 	H 	0.43200 0.44090 0.87230 0.02900
H 	H 	0.12120 0.64660 0.72840 0.06600
H 	H 	0.13510 0.67630 0.64990 0.02200
H 	H 	0.41700 0.42510 0.64180 0.01800
H 	H 	0.39760 0.39190 0.72030 0.06500
H 	H 	0.25080 0.98130 0.47790 0.02900
H 	H 	0.36610 0.12830 0.52000 0.05500
H 	H 	0.40980 0.22650 0.58880 0.02100
H 	H 	0.33550 0.14750 0.65780 0.05300
H 	H 	0.22590 0.96740 0.65880 0.02500
H 	H 	0.18560 0.86820 0.58980 0.05700
H 	H 	0.46470 0.51240 0.36630 0.02200
H 	H 	0.45000 0.48280 0.28770 0.06400
H 	H 	0.05310 0.52480 0.29370 0.06400
H 	H 	0.06800 0.55910 0.37230 0.02900
H 	H 	0.37880 0.35340 0.22840 0.06600
H 	H 	0.36490 0.32370 0.14990 0.02200
H 	H 	0.08300 0.57490 0.14180 0.01800
H 	H 	0.10240 0.60810 0.22030 0.06500
H 	H 	0.75080 0.51870 0.52210 0.02900
H 	H 	0.86610 0.37170 0.48000 0.05600
H 	H 	0.90980 0.27350 0.41120 0.02100
H 	H 	0.83550 0.35250 0.34220 0.05300
H 	H 	0.72590 0.53260 0.34120 0.02500
H 	H 	0.68560 0.63180 0.41020 0.05700
H 	H 	0.96470 0.98760 0.63370 0.02200
H 	H 	0.95000 0.01720 0.71230 0.06400
H 	H 	0.55310 0.97520 0.70630 0.06400
H 	H 	0.56800 0.94090 0.62770 0.02900
H 	H 	0.87880 0.14660 0.77160 0.06600
H 	H 	0.86490 0.17630 0.85010 0.02200
H 	H 	0.58300 0.92510 0.85820 0.01800
H 	H 	0.60240 0.89190 0.77970 0.06500
H 	H 	0.74920 0.48130 0.02210 0.02900
H 	H 	0.63390 0.62830 0.98000 0.05600
H 	H 	0.59020 0.72650 0.91120 0.02100
H 	H 	0.66450 0.64750 0.84220 0.05300
H 	H 	0.77410 0.46740 0.84120 0.02500
H 	H 	0.81440 0.36820 0.91020 0.05700
H 	H 	0.53530 0.01240 0.13370 0.02200
H 	H 	0.55000 0.98280 0.21230 0.06400
H 	H 	0.94690 0.02480 0.20630 0.06400
H 	H 	0.93200 0.05910 0.12770 0.03000
H 	H 	0.62120 0.85340 0.27160 0.06600
H 	H 	0.63510 0.82370 0.35010 0.02200
H 	H 	0.91700 0.07490 0.35820 0.01800
H 	H 	0.89760 0.10810 0.27970 0.06500
C 	C 	0.12550 0.15570 0.99760 0.36800
C 	C 	0.24720 0.07720 0.00335 -0.05500
C 	C 	0.22850 0.01250 0.04860 0.03900
C 	C 	0.16190 0.90470 0.04813 -0.09400
C 	C 	0.13670 0.84570 0.08905 0.00300
C 	C 	0.17990 0.89330 0.13006 -0.07800
C 	C 	0.24550 0.99980 0.13071 0.00400
C 	C 	0.26940 0.05880 0.08944 -0.09700
C 	C 	0.22330 0.43680 0.92684 0.41400
C 	C 	0.23280 0.46100 0.87685 -0.13700
C 	C 	0.11860 0.48420 0.85155 0.04600
C 	C 	0.12770 0.50220 0.80488 -0.10900
C 	C 	0.24910 0.49870 0.78281 0.03900
C 	C 	0.36330 0.47670 0.80839 -0.10700
C 	C 	0.35450 0.45700 0.85519 0.04600
C 	C 	0.25710 0.51680 0.73248 0.04300
C 	C 	0.18090 0.60080 0.71084 -0.11200
C 	C 	0.18990 0.61960 0.66418 0.05100
C 	C 	0.27930 0.55530 0.63836 -0.13700
C 	C 	0.35660 0.47000 0.65934 0.04900
C 	C 	0.34520 0.45050 0.70613 -0.11100
C 	C 	0.29090 0.57700 0.58810 0.40900
C 	C 	0.37450 0.84430 0.49760 0.36700
C 	C 	0.25280 0.92280 0.50335 -0.05500
C 	C 	0.27150 0.98750 0.54860 0.03900
C 	C 	0.33810 0.09530 0.54813 -0.09300
C 	C 	0.36330 0.15430 0.58905 0.00200
C 	C 	0.32010 0.10670 0.63006 -0.07700
C 	C 	0.25450 0.00020 0.63071 0.00300
C 	C 	0.23060 0.94120 0.58944 -0.09600
C 	C 	0.27670 0.56320 0.42684 0.41400
C 	C 	0.26720 0.53900 0.37685 -0.13700
C 	C 	0.38140 0.51580 0.35155 0.04600
C 	C 	0.37230 0.49780 0.30488 -0.10900
C 	C 	0.25090 0.50130 0.28281 0.03900
C 	C 	0.13670 0.52330 0.30839 -0.10700
C 	C 	0.14550 0.54300 0.35519 0.04600
C 	C 	0.24290 0.48320 0.23248 0.04300
C 	C 	0.31910 0.39920 0.21084 -0.11200
C 	C 	0.31010 0.38040 0.16418 0.05100
C 	C 	0.22070 0.44470 0.13836 -0.13700
C 	C 	0.14340 0.53000 0.15934 0.04900
C 	C 	0.15480 0.54950 0.20613 -0.11100
C 	C 	0.20910 0.42300 0.08810 0.40900
C 	C 	0.87450 0.65570 0.50240 0.36700
C 	C 	0.75280 0.57720 0.49665 -0.05500
C 	C 	0.77150 0.51250 0.45140 0.03900
C 	C 	0.83810 0.40470 0.45187 -0.09300
C 	C 	0.86330 0.34570 0.41095 0.00300
C 	C 	0.82010 0.39330 0.36994 -0.07800
C 	C 	0.75450 0.49980 0.36929 0.00400
C 	C 	0.73060 0.55880 0.41056 -0.09700
C 	C 	0.77670 0.93680 0.57316 0.41400
C 	C 	0.76720 0.96100 0.62315 -0.13800
C 	C 	0.88140 0.98420 0.64845 0.04600
C 	C 	0.87230 0.00220 0.69512 -0.10900
C 	C 	0.75090 0.99870 0.71719 0.04000
C 	C 	0.63670 0.97670 0.69161 -0.10700
C 	C 	0.64550 0.95700 0.64481 0.04600
C 	C 	0.74290 0.01680 0.76752 0.04300
C 	C 	0.81910 0.10080 0.78916 -0.11200
C 	C 	0.81010 0.11960 0.83582 0.05100
C 	C 	0.72070 0.05530 0.86164 -0.13800
C 	C 	0.64340 0.97000 0.84066 0.05000
C 	C 	0.65480 0.95050 0.79387 -0.11100
C 	C 	0.70910 0.07700 0.91190 0.40900
C 	C 	0.62550 0.34430 0.00240 0.36800
C 	C 	0.74720 0.42280 0.99665 -0.05600
C 	C 	0.72850 0.48750 0.95140 0.04000
C 	C 	0.66190 0.59530 0.95187 -0.09300
C 	C 	0.63670 0.65430 0.91095 0.00300
C 	C 	0.67990 0.60670 0.86994 -0.07800
C 	C 	0.74550 0.50020 0.86929 0.00400
C 	C 	0.76940 0.44120 0.91056 -0.09700
C 	C 	0.72330 0.06320 0.07316 0.41400
C 	C 	0.73280 0.03900 0.12315 -0.13700
C 	C 	0.61860 0.01580 0.14845 0.04600
C 	C 	0.62770 0.99780 0.19512 -0.10800
C 	C 	0.74910 0.00130 0.21719 0.03900
C 	C 	0.86330 0.02330 0.19161 -0.10600
C 	C 	0.85450 0.04300 0.14481 0.04600
C 	C 	0.75710 0.98320 0.26752 0.04300
C 	C 	0.68090 0.89920 0.28916 -0.11200
C 	C 	0.68990 0.88040 0.33582 0.05100
C 	C 	0.77930 0.94470 0.36164 -0.13700
C 	C 	0.85660 0.03000 0.34066 0.04900
C 	C 	0.84520 0.04950 0.29387 -0.11200
C 	C 	0.79090 0.92300 0.41190 0.40900
O 	O 	0.13920 0.26460 0.00391 -0.56600
O 	O 	0.01910 0.10570 0.98764 -0.44000
O 	O 	0.36410 0.14500 0.00187 -0.53700
O 	O 	0.32010 0.39130 0.94584 -0.48000
O 	O 	0.11730 0.46870 0.94662 -0.50200
O 	O 	0.19390 0.62910 0.56978 -0.47500
O 	O 	0.39370 0.54250 0.56810 -0.51000
O 	O 	0.36080 0.73540 0.50391 -0.56600
O 	O 	0.48090 0.89430 0.48764 -0.44000
O 	O 	0.13590 0.85500 0.50187 -0.53700
O 	O 	0.17990 0.60870 0.44584 -0.48100
O 	O 	0.38270 0.53130 0.44662 -0.50200
O 	O 	0.30610 0.37090 0.06978 -0.47500
O 	O 	0.10630 0.45750 0.06810 -0.51100
O 	O 	0.86080 0.76460 0.49609 -0.56600
O 	O 	0.98090 0.60570 0.51236 -0.44000
O 	O 	0.63590 0.64500 0.49813 -0.53700
O 	O 	0.67990 0.89130 0.55416 -0.48100
O 	O 	0.88270 0.96870 0.55338 -0.50200
O 	O 	0.80610 0.12910 0.93022 -0.47500
O 	O 	0.60630 0.04250 0.93190 -0.51100
O 	O 	0.63920 0.23540 0.99609 -0.56600
O 	O 	0.51910 0.39430 0.01236 -0.44000
O 	O 	0.86410 0.35500 0.99813 -0.53600
O 	O 	0.82010 0.10870 0.05416 -0.48000
O 	O 	0.61730 0.03130 0.05338 -0.50200
O 	O 	0.69390 0.87090 0.43022 -0.47500
O 	O 	0.89370 0.95750 0.43190 -0.51000
