data_crystal

_cell_length_a 10.23980
_cell_length_b 15.48920
_cell_length_c 23.71280
_cell_angle_alpha 90.00000
_cell_angle_beta  90.00000
_cell_angle_gamma 90.00000

_symmetry_space_group_name_	'P 1'
_symmetry_space_group_name_H-M	'P 1'

loop_
_symmetry_equiv_pos_as_xyz
  x,y,z

loop_
_atom_site_label
_atom_site_type_symbol
_atom_site_fract_x
_atom_site_fract_y
_atom_site_fract_z
_atom_site_charge
Zn	Zn	0.61442 0.30886 0.01210 1.23900
Zn	Zn	0.43127 0.12032 0.99215 1.21400
Zn	Zn	0.88558 0.69114 0.51210 1.24000
Zn	Zn	0.06873 0.87968 0.49215 1.21400
Zn	Zn	0.38558 0.80886 0.48790 1.23800
Zn	Zn	0.56873 0.62032 0.50785 1.21300
Zn	Zn	0.11442 0.19114 0.98790 1.23800
Zn	Zn	0.93127 0.37968 0.00785 1.21300
H 	H 	0.05060 0.10240 0.82670 0.03900
H 	H 	0.02310 0.05170 0.73590 0.05400
H 	H 	0.43390 0.04380 0.82060 0.05200
H 	H 	0.11640 0.99360 0.64790 0.04200
H 	H 	0.49810 0.93390 0.64150 0.02600
H 	H 	0.52820 0.98590 0.73020 0.06000
H 	H 	0.70570 0.08780 0.97220 0.03000
H 	H 	0.56990 0.25550 0.88820 0.05900
H 	H 	0.55500 0.25750 0.78990 0.02100
H 	H 	0.67890 0.15540 0.73830 0.06000
H 	H 	0.78260 0.04760 0.78130 0.01300
H 	H 	0.79800 0.04720 0.88100 0.07200
H 	H 	0.44940 0.89760 0.32670 0.03900
H 	H 	0.47690 0.94830 0.23590 0.05500
H 	H 	0.06610 0.95620 0.32060 0.05100
H 	H 	0.38360 0.00640 0.14790 0.04300
H 	H 	0.00190 0.06610 0.14150 0.02800
H 	H 	0.97180 0.01410 0.23020 0.05700
H 	H 	0.79430 0.91220 0.47220 0.03000
H 	H 	0.93010 0.74450 0.38820 0.05900
H 	H 	0.94500 0.74250 0.28990 0.02100
H 	H 	0.82110 0.84460 0.23830 0.06000
H 	H 	0.71740 0.95240 0.28130 0.01300
H 	H 	0.70200 0.95280 0.38100 0.07200
H 	H 	0.94940 0.60240 0.67330 0.03900
H 	H 	0.97690 0.55170 0.76410 0.05500
H 	H 	0.56610 0.54380 0.67940 0.05200
H 	H 	0.88360 0.49360 0.85210 0.04300
H 	H 	0.50190 0.43390 0.85850 0.02600
H 	H 	0.47180 0.48590 0.76980 0.06000
H 	H 	0.29430 0.58780 0.52780 0.03000
H 	H 	0.43010 0.75550 0.61180 0.05900
H 	H 	0.44500 0.75750 0.71010 0.02100
H 	H 	0.32110 0.65540 0.76170 0.06000
H 	H 	0.21740 0.54760 0.71870 0.01300
H 	H 	0.20200 0.54720 0.61900 0.07100
H 	H 	0.55060 0.39760 0.17330 0.03900
H 	H 	0.52310 0.44830 0.26410 0.05400
H 	H 	0.93390 0.45620 0.17940 0.05200
H 	H 	0.61640 0.50640 0.35210 0.04200
H 	H 	0.99810 0.56610 0.35850 0.02600
H 	H 	0.02820 0.51410 0.26980 0.06100
H 	H 	0.20570 0.41220 0.02780 0.03000
H 	H 	0.06990 0.24450 0.11180 0.05900
H 	H 	0.05500 0.24250 0.21010 0.02100
H 	H 	0.17890 0.34460 0.26170 0.06000
H 	H 	0.28260 0.45240 0.21870 0.01300
H 	H 	0.29800 0.45280 0.11900 0.07200
C 	C 	0.25890 0.10480 0.89313 0.41200
C 	C 	0.24540 0.07490 0.83250 -0.09800
C 	C 	0.12300 0.07940 0.80670 0.01500
C 	C 	0.10750 0.05040 0.75250 -0.08600
C 	C 	0.21120 0.01940 0.72140 0.01600
C 	C 	0.33830 0.01650 0.74650 0.02600
C 	C 	0.35070 0.04520 0.80290 -0.03100
C 	C 	0.19930 0.98970 0.66580 -0.02200
C 	C 	0.30100 0.95530 0.63602 -0.10600
C 	C 	0.42520 0.95550 0.66180 0.02800
C 	C 	0.44290 0.98560 0.71450 -0.09900
C 	C 	0.27740 0.91850 0.57757 0.40400
C 	C 	0.82400 0.19680 0.97701 0.40500
C 	C 	0.69970 0.14930 0.95969 -0.08400
C 	C 	0.69000 0.15250 0.89400 0.06700
C 	C 	0.61590 0.21360 0.86660 -0.11400
C 	C 	0.60690 0.21560 0.80870 0.02500
C 	C 	0.67800 0.15260 0.77830 -0.10100
C 	C 	0.74160 0.09170 0.80280 0.03000
C 	C 	0.74960 0.09140 0.86270 -0.11700
C 	C 	0.24110 0.89520 0.39313 0.41200
C 	C 	0.25460 0.92510 0.33250 -0.09900
C 	C 	0.37700 0.92060 0.30670 0.01600
C 	C 	0.39250 0.94960 0.25250 -0.08700
C 	C 	0.28880 0.98060 0.22140 0.01700
C 	C 	0.16170 0.98350 0.24650 0.02400
C 	C 	0.14930 0.95480 0.30290 -0.02900
C 	C 	0.30070 0.01030 0.16580 -0.02300
C 	C 	0.19900 0.04470 0.13602 -0.10400
C 	C 	0.07480 0.04450 0.16180 0.02500
C 	C 	0.05710 0.01440 0.21450 -0.09400
C 	C 	0.22260 0.08150 0.07757 0.40400
C 	C 	0.67600 0.80320 0.47701 0.40300
C 	C 	0.80030 0.85070 0.45969 -0.08400
C 	C 	0.81000 0.84750 0.39400 0.06600
C 	C 	0.88410 0.78640 0.36660 -0.11400
C 	C 	0.89310 0.78440 0.30870 0.02500
C 	C 	0.82200 0.84740 0.27830 -0.10100
C 	C 	0.75840 0.90830 0.30280 0.03000
C 	C 	0.75040 0.90860 0.36270 -0.11700
C 	C 	0.74110 0.60480 0.60687 0.41200
C 	C 	0.75460 0.57490 0.66750 -0.09800
C 	C 	0.87700 0.57940 0.69330 0.01600
C 	C 	0.89250 0.55040 0.74750 -0.08600
C 	C 	0.78880 0.51940 0.77860 0.01700
C 	C 	0.66170 0.51650 0.75350 0.02700
C 	C 	0.64930 0.54520 0.69710 -0.03100
C 	C 	0.80070 0.48970 0.83420 -0.02200
C 	C 	0.69900 0.45530 0.86398 -0.10500
C 	C 	0.57480 0.45550 0.83820 0.02800
C 	C 	0.55710 0.48560 0.78550 -0.10000
C 	C 	0.72260 0.41850 0.92243 0.40400
C 	C 	0.17600 0.69680 0.52299 0.40300
C 	C 	0.30030 0.64930 0.54031 -0.08400
C 	C 	0.31000 0.65250 0.60600 0.06600
C 	C 	0.38410 0.71360 0.63340 -0.11400
C 	C 	0.39310 0.71560 0.69130 0.02500
C 	C 	0.32200 0.65260 0.72170 -0.10100
C 	C 	0.25840 0.59170 0.69720 0.02900
C 	C 	0.25040 0.59140 0.63730 -0.11700
C 	C 	0.75890 0.39520 0.10687 0.41200
C 	C 	0.74540 0.42510 0.16750 -0.09800
C 	C 	0.62300 0.42060 0.19330 0.01500
C 	C 	0.60750 0.44960 0.24750 -0.08500
C 	C 	0.71120 0.48060 0.27860 0.01600
C 	C 	0.83830 0.48350 0.25350 0.02800
C 	C 	0.85070 0.45480 0.19710 -0.03200
C 	C 	0.69930 0.51030 0.33420 -0.02100
C 	C 	0.80100 0.54470 0.36398 -0.10600
C 	C 	0.92520 0.54450 0.33820 0.03000
C 	C 	0.94290 0.51440 0.28550 -0.10200
C 	C 	0.77740 0.58150 0.42243 0.40500
C 	C 	0.32400 0.30320 0.02299 0.40400
C 	C 	0.19970 0.35070 0.04031 -0.08400
C 	C 	0.19000 0.34750 0.10600 0.06700
C 	C 	0.11590 0.28640 0.13340 -0.11400
C 	C 	0.10690 0.28440 0.19130 0.02500
C 	C 	0.17800 0.34740 0.22170 -0.10100
C 	C 	0.24160 0.40830 0.19720 0.03000
C 	C 	0.24960 0.40860 0.13730 -0.11700
O 	O 	0.36260 0.08540 0.91817 -0.50400
O 	O 	0.16250 0.14250 0.91326 -0.48300
O 	O 	0.16110 0.91850 0.56058 -0.51100
O 	O 	0.37620 0.89310 0.55139 -0.47800
O 	O 	0.58930 0.18900 0.98590 -0.53300
O 	O 	0.81150 0.26722 0.00183 -0.58400
O 	O 	0.92880 0.16060 0.96684 -0.46100
O 	O 	0.13740 0.91460 0.41817 -0.50400
O 	O 	0.33750 0.85750 0.41326 -0.48200
O 	O 	0.33890 0.08150 0.06058 -0.51100
O 	O 	0.12380 0.10690 0.05139 -0.47600
O 	O 	0.91070 0.81100 0.48590 -0.53300
O 	O 	0.68850 0.73278 0.50183 -0.58200
O 	O 	0.57120 0.83940 0.46684 -0.46100
O 	O 	0.63740 0.58540 0.58183 -0.50400
O 	O 	0.83750 0.64250 0.58674 -0.48200
O 	O 	0.83890 0.41850 0.93942 -0.51000
O 	O 	0.62380 0.39310 0.94861 -0.47700
O 	O 	0.41070 0.68900 0.51410 -0.53300
O 	O 	0.18850 0.76722 0.49817 -0.58200
O 	O 	0.07120 0.66060 0.53316 -0.46200
O 	O 	0.86260 0.41460 0.08183 -0.50400
O 	O 	0.66250 0.35750 0.08674 -0.48200
O 	O 	0.66110 0.58150 0.43942 -0.51100
O 	O 	0.87620 0.60690 0.44861 -0.47700
O 	O 	0.08930 0.31100 0.01410 -0.53200
O 	O 	0.31150 0.23278 0.99817 -0.58300
O 	O 	0.42880 0.33940 0.03316 -0.46200
