data_crystal

_cell_length_a 8.81470
_cell_length_b 8.81470
_cell_length_c 13.73500
_cell_angle_alpha 94.58950
_cell_angle_beta  94.58950
_cell_angle_gamma 100.25400

_symmetry_space_group_name_	'P 1'
_symmetry_space_group_name_H-M	'P 1'

loop_
_symmetry_equiv_pos_as_xyz
  x,y,z

loop_
_atom_site_label
_atom_site_type_symbol
_atom_site_fract_x
_atom_site_fract_y
_atom_site_fract_z
_atom_site_charge
Ca	Ca	0.87590 0.57430 0.60400 1.48400
Ca	Ca	0.42570 0.12410 0.89600 1.47400
Ca	Ca	0.12410 0.42570 0.39600 1.47000
Ca	Ca	0.57430 0.87590 0.10400 1.47900
Fe	Fe	0.50000 0.00000 0.50000 1.12300
Fe	Fe	-0.00000 0.50000 -0.00000 1.08500
H 	H 	0.48190 0.45910 0.55380 -0.01500
H 	H 	0.44860 0.62740 0.62060 0.02300
H 	H 	0.58030 0.72810 0.70780 0.02600
H 	H 	0.74390 0.74050 0.79280 -0.01000
H 	H 	0.25160 0.63760 0.78780 -0.01500
H 	H 	0.69960 0.41380 0.80810 0.00500
H 	H 	0.96280 0.68900 0.40790 0.17400
H 	H 	0.83610 0.53310 0.39210 0.20000
H 	H 	0.54090 0.51810 0.94620 0.01400
H 	H 	0.37260 0.55140 0.87940 0.03500
H 	H 	0.27190 0.41970 0.79220 0.00700
H 	H 	0.25950 0.25610 0.70720 -0.04700
H 	H 	0.36240 0.74840 0.71220 -0.00100
H 	H 	0.58620 0.30040 0.69190 0.00400
H 	H 	0.31100 0.03720 0.09210 0.11800
H 	H 	0.46690 0.16390 0.10790 0.19200
H 	H 	0.51810 0.54090 0.44620 -0.01500
H 	H 	0.55140 0.37260 0.37940 0.02000
H 	H 	0.41970 0.27190 0.29220 0.00500
H 	H 	0.25610 0.25950 0.20720 -0.05500
H 	H 	0.74840 0.36240 0.21220 -0.01100
H 	H 	0.30040 0.58620 0.19190 0.00200
H 	H 	0.03720 0.31100 0.59210 0.12500
H 	H 	0.16390 0.46690 0.60790 0.19700
H 	H 	0.45910 0.48190 0.05380 -0.04400
H 	H 	0.62740 0.44860 0.12060 0.00900
H 	H 	0.72810 0.58030 0.20780 0.02400
H 	H 	0.74050 0.74390 0.29280 -0.01800
H 	H 	0.63760 0.25160 0.28780 -0.02600
H 	H 	0.41380 0.69960 0.30810 0.00300
H 	H 	0.68900 0.96280 0.90790 0.18200
H 	H 	0.53310 0.83610 0.89210 0.20500
C 	C 	0.64870 0.19010 0.52150 -0.25100
C 	C 	0.46640 0.01740 0.63820 -0.25900
C 	C 	0.65380 0.87400 0.52960 -0.16600
C 	C 	0.48090 0.51570 0.62640 -0.00600
C 	C 	0.63410 0.67010 0.76370 -0.00900
C 	C 	0.80990 0.35130 0.97850 -0.15200
C 	C 	0.98260 0.53360 0.86180 -0.12800
C 	C 	0.12600 0.34620 0.97040 -0.19900
C 	C 	0.48430 0.51910 0.87360 -0.01000
C 	C 	0.32990 0.36590 0.73630 -0.00200
C 	C 	0.35130 0.80990 0.47850 -0.19800
C 	C 	0.53360 0.98260 0.36180 -0.15900
C 	C 	0.34620 0.12600 0.47040 -0.25800
C 	C 	0.51910 0.48430 0.37360 -0.00500
C 	C 	0.36590 0.32990 0.23630 -0.00300
C 	C 	0.19010 0.64870 0.02150 -0.28500
C 	C 	0.01740 0.46640 0.13820 -0.27500
C 	C 	0.87400 0.65380 0.02960 -0.20600
C 	C 	0.51570 0.48090 0.12640 -0.00100
C 	C 	0.67010 0.63410 0.26370 -0.00900
C 	C 	0.35710 0.64290 0.75000 0.00600
C 	C 	0.60740 0.39260 0.75000 -0.02000
C 	C 	0.64290 0.35710 0.25000 0.01000
C 	C 	0.39260 0.60740 0.25000 -0.02000
N 	N 	0.73380 0.30940 0.53390 -0.19400
N 	N 	0.44720 0.03040 0.72090 -0.23200
N 	N 	0.73870 0.79130 0.54950 -0.19900
N 	N 	0.62370 0.53130 0.69360 -0.19800
N 	N 	0.34050 0.50310 0.68020 -0.14000
N 	N 	0.69060 0.26620 0.96610 -0.21400
N 	N 	0.96960 0.55280 0.77910 -0.20800
N 	N 	0.20870 0.26130 0.95050 -0.20800
N 	N 	0.46870 0.37630 0.80640 -0.20100
N 	N 	0.49690 0.65950 0.81980 -0.12900
N 	N 	0.26620 0.69060 0.46610 -0.22100
N 	N 	0.55280 0.96960 0.27910 -0.20400
N 	N 	0.26130 0.20870 0.45050 -0.21600
N 	N 	0.37630 0.46870 0.30640 -0.20500
N 	N 	0.65950 0.49690 0.31980 -0.13400
N 	N 	0.30940 0.73380 0.03390 -0.20700
N 	N 	0.03040 0.44720 0.22090 -0.23000
N 	N 	0.79130 0.73870 0.04950 -0.21300
N 	N 	0.53130 0.62370 0.19360 -0.20200
N 	N 	0.50310 0.34050 0.18020 -0.14500
O 	O 	0.92810 0.58290 0.43000 -0.70800
O 	O 	0.41710 0.07190 0.07000 -0.78200
O 	O 	0.07190 0.41710 0.57000 -0.75500
O 	O 	0.58290 0.92810 0.93000 -0.67800
