data_crystal

_cell_length_a 10.18890
_cell_length_b 16.65100
_cell_length_c 19.73000
_cell_angle_alpha 90.00000
_cell_angle_beta  101.82500
_cell_angle_gamma 90.00000

_symmetry_space_group_name_	'P 1'
_symmetry_space_group_name_H-M	'P 1'

loop_
_symmetry_equiv_pos_as_xyz
  x,y,z

loop_
_atom_site_label
_atom_site_type_symbol
_atom_site_fract_x
_atom_site_fract_y
_atom_site_fract_z
_atom_site_charge
Zn	Zn	0.49794 0.34196 0.38455 1.23700
Zn	Zn	0.75780 0.43616 0.50027 1.18500
Zn	Zn	0.50206 0.84196 0.61545 1.23600
Zn	Zn	0.24220 0.93616 0.49973 1.18000
H 	H 	0.58250 0.06900 0.71160 0.04200
H 	H 	0.69270 0.29260 0.66680 0.04000
H 	H 	0.90590 0.22720 0.71150 0.12200
H 	H 	0.18140 0.28470 0.88330 0.12500
H 	H 	0.02720 0.27950 0.95010 0.01900
H 	H 	0.37190 0.19090 0.87960 -0.03600
H 	H 	0.43550 0.10200 0.88260 -0.04900
H 	H 	0.42900 0.16990 0.01030 0.24100
H 	H 	0.28540 0.14610 0.96500 0.22100
H 	H 	0.39860 0.07890 0.98600 0.23100
H 	H 	0.52110 0.16510 0.80320 0.10700
H 	H 	0.77700 0.08840 0.97000 0.04100
H 	H 	0.77110 0.98100 0.04590 0.08400
H 	H 	0.89770 0.12870 0.20950 0.12200
H 	H 	0.85500 0.37600 0.11220 0.08600
H 	H 	0.96360 0.44350 0.01300 -0.04600
H 	H 	0.83540 0.47930 0.03820 -0.05500
H 	H 	0.75470 0.53520 0.93600 0.21900
H 	H 	0.91250 0.55130 0.94690 0.22300
H 	H 	0.84500 0.48010 0.89730 0.24200
H 	H 	0.13660 0.27500 0.22270 0.05800
H 	H 	0.02610 0.34440 0.40120 0.03600
H 	H 	0.74640 0.28130 0.23650 0.05400
H 	H 	0.41750 0.56900 0.28840 0.03800
H 	H 	0.30730 0.79260 0.33320 0.03900
H 	H 	0.09410 0.72720 0.28850 0.12000
H 	H 	0.81860 0.78470 0.11670 0.12300
H 	H 	0.97280 0.77950 0.04990 0.02100
H 	H 	0.62810 0.69090 0.12040 -0.03400
H 	H 	0.56450 0.60200 0.11740 -0.04800
H 	H 	0.57100 0.66990 0.98970 0.22800
H 	H 	0.71460 0.64610 0.03500 0.21100
H 	H 	0.60140 0.57890 0.01400 0.21800
H 	H 	0.47890 0.66510 0.19680 0.10600
H 	H 	0.22300 0.58840 0.03000 0.03100
H 	H 	0.22890 0.48100 0.95410 0.11200
H 	H 	0.10230 0.62870 0.79050 0.12100
H 	H 	0.14500 0.87600 0.88780 0.07800
H 	H 	0.03640 0.94350 0.98700 -0.02900
H 	H 	0.16460 0.97930 0.96180 -0.04000
H 	H 	0.24530 0.03520 0.06400 0.17700
H 	H 	0.08750 0.05130 0.05310 0.17900
H 	H 	0.15500 0.98010 0.10270 0.17800
H 	H 	0.86340 0.77500 0.77730 0.05700
H 	H 	0.97390 0.84440 0.59880 0.03400
H 	H 	0.25360 0.78130 0.76350 0.05200
C 	C 	0.59570 0.29010 0.52680 0.42300
C 	C 	0.59230 0.22740 0.58100 -0.13900
C 	C 	0.53540 0.15190 0.56270 0.12500
C 	C 	0.53720 0.09400 0.60990 -0.16800
C 	C 	0.58870 0.10900 0.67800 0.04400
C 	C 	0.64990 0.18170 0.69900 -0.03300
C 	C 	0.65250 0.24230 0.65240 0.02200
C 	C 	0.47140 0.01550 0.59030 0.45400
C 	C 	0.69470 0.19930 0.77560 0.03800
C 	C 	0.83370 0.22510 0.80260 0.05700
C 	C 	0.92960 0.23510 0.76010 -0.20200
C 	C 	0.05520 0.25610 0.79120 0.26400
C 	C 	0.09160 0.27040 0.86320 -0.19300
C 	C 	0.00330 0.26400 0.90280 0.05400
C 	C 	0.87690 0.23540 0.87680 -0.02900
C 	C 	0.78240 0.22290 0.92060 -0.02300
C 	C 	0.65490 0.19470 0.88920 0.17100
C 	C 	0.43100 0.15180 0.90930 0.30200
C 	C 	0.38200 0.13530 0.97290 -0.66800
C 	C 	0.60990 0.18360 0.82050 -0.16100
C 	C 	0.82600 0.23050 0.99750 -0.03100
C 	C 	0.84090 0.17230 0.04470 -0.01500
C 	C 	0.80150 0.09660 0.01860 0.00900
C 	C 	0.79800 0.03280 0.06370 -0.14100
C 	C 	0.83390 0.04480 0.13480 0.24600
C 	C 	0.87320 0.12050 0.16090 -0.19000
C 	C 	0.87670 0.18430 0.11580 0.05300
C 	C 	0.89200 0.26000 0.14170 0.01300
C 	C 	0.85530 0.32250 0.09560 -0.13500
C 	C 	0.81800 0.30720 0.02330 0.14700
C 	C 	0.86600 0.45480 0.99860 0.28600
C 	C 	0.84300 0.50980 0.93990 -0.66500
C 	C 	0.93130 0.28190 0.21760 -0.00800
C 	C 	0.06880 0.28770 0.24760 -0.02300
C 	C 	0.09940 0.31410 0.31860 -0.07500
C 	C 	0.00230 0.32620 0.35470 0.03300
C 	C 	0.86540 0.31240 0.32460 -0.11400
C 	C 	0.83760 0.29090 0.25760 0.00000
C 	C 	0.24390 0.33000 0.35370 0.31800
C 	C 	0.75710 0.33100 0.36520 0.43800
C 	C 	0.40430 0.79010 0.47320 0.42200
C 	C 	0.40770 0.72740 0.41900 -0.13900
C 	C 	0.46460 0.65190 0.43730 0.11900
C 	C 	0.46280 0.59400 0.39010 -0.16200
C 	C 	0.41130 0.60900 0.32200 0.03800
C 	C 	0.35010 0.68170 0.30100 -0.03300
C 	C 	0.34750 0.74230 0.34760 0.02000
C 	C 	0.52860 0.51550 0.40970 0.42500
C 	C 	0.30530 0.69930 0.22440 0.03800
C 	C 	0.16630 0.72510 0.19740 0.05200
C 	C 	0.07040 0.73510 0.23990 -0.19900
C 	C 	0.94480 0.75610 0.20880 0.26000
C 	C 	0.90840 0.77040 0.13680 -0.18900
C 	C 	0.99670 0.76400 0.09720 0.04700
C 	C 	0.12310 0.73540 0.12320 -0.02300
C 	C 	0.21760 0.72290 0.07940 -0.03200
C 	C 	0.34510 0.69470 0.11080 0.17300
C 	C 	0.56900 0.65180 0.09070 0.28900
C 	C 	0.61800 0.63530 0.02710 -0.64100
C 	C 	0.39010 0.68360 0.17950 -0.16400
C 	C 	0.17400 0.73050 0.00250 -0.01100
C 	C 	0.15910 0.67230 0.95530 -0.03800
C 	C 	0.19850 0.59660 0.98140 0.03000
C 	C 	0.20200 0.53280 0.93630 -0.18800
C 	C 	0.16610 0.54480 0.86520 0.24400
C 	C 	0.12680 0.62050 0.83910 -0.19900
C 	C 	0.12330 0.68430 0.88420 0.06600
C 	C 	0.10800 0.76000 0.85830 0.00100
C 	C 	0.14470 0.82250 0.90440 -0.12300
C 	C 	0.18200 0.80720 0.97670 0.12800
C 	C 	0.13400 0.95480 0.00140 0.20000
C 	C 	0.15700 0.00980 0.06010 -0.49200
C 	C 	0.06870 0.78190 0.78240 -0.00400
C 	C 	0.93120 0.78770 0.75240 -0.02700
C 	C 	0.90060 0.81410 0.68140 -0.07700
C 	C 	0.99770 0.82620 0.64530 0.03100
C 	C 	0.13460 0.81240 0.67540 -0.11500
C 	C 	0.16240 0.79090 0.74240 -0.00300
C 	C 	0.75610 0.83000 0.64630 0.31700
C 	C 	0.24290 0.83100 0.63480 0.43700
Cl	Cl	0.17870 0.26120 0.74030 -0.34400
Cl	Cl	0.83410 0.96790 0.19420 -0.36900
Cl	Cl	0.82130 0.76120 0.25970 -0.34800
Cl	Cl	0.16590 0.46790 0.80580 -0.35300
O 	O 	0.53240 0.27500 0.46850 -0.48500
O 	O 	0.67250 0.35170 0.54580 -0.50000
O 	O 	0.39610 0.00790 0.53130 -0.51100
O 	O 	0.50070 0.95860 0.63200 -0.51100
O 	O 	0.33430 0.30430 0.32040 -0.40500
O 	O 	0.27380 0.36150 0.40860 -0.34400
O 	O 	0.79440 0.36390 0.42210 -0.52700
O 	O 	0.64320 0.31260 0.33670 -0.47700
O 	O 	0.56970 0.18680 0.93620 -0.25200
O 	O 	0.78790 0.37440 0.97670 -0.23700
O 	O 	0.46760 0.77500 0.53150 -0.48800
O 	O 	0.32750 0.85170 0.45420 -0.50400
O 	O 	0.60390 0.50790 0.46870 -0.51700
O 	O 	0.49930 0.45860 0.36800 -0.48600
O 	O 	0.66570 0.80430 0.67960 -0.40900
O 	O 	0.72620 0.86150 0.59140 -0.34900
O 	O 	0.20560 0.86390 0.57790 -0.53200
O 	O 	0.35680 0.81260 0.66330 -0.48000
O 	O 	0.43030 0.68680 0.06380 -0.25000
O 	O 	0.21210 0.87440 0.02330 -0.22100
