data_crystal

_cell_length_a 7.55710
_cell_length_b 12.57100
_cell_length_c 12.57100
_cell_angle_alpha 84.81650
_cell_angle_beta  72.50780
_cell_angle_gamma 72.50780

_symmetry_space_group_name_	'P 1'
_symmetry_space_group_name_H-M	'P 1'

loop_
_symmetry_equiv_pos_as_xyz
  x,y,z

loop_
_atom_site_label
_atom_site_type_symbol
_atom_site_fract_x
_atom_site_fract_y
_atom_site_fract_z
_atom_site_charge
Zn	Zn	0.50000 0.00000 -0.00000 1.14000
Zn	Zn	0.75000 0.50000 0.50000 1.20100
H 	H 	0.62500 0.85200 0.64800 0.22900
H 	H 	0.12500 0.14800 0.35200 0.17800
H 	H 	0.72700 0.64800 0.14800 0.20100
H 	H 	0.52300 0.35200 0.85200 0.22800
C 	C 	0.61130 0.82370 0.80890 0.39300
C 	C 	0.24390 0.17630 0.19110 0.36300
C 	C 	0.57980 0.80890 0.17630 0.38800
C 	C 	0.56500 0.19110 0.82370 0.38200
C 	C 	0.00610 0.30890 0.32370 0.33300
C 	C 	0.63870 0.69110 0.67630 0.39300
C 	C 	0.68500 0.67630 0.30890 0.38600
C 	C 	0.67020 0.32370 0.69110 0.38600
C 	C 	0.62500 0.79720 0.70280 -0.43800
C 	C 	0.62500 0.63200 0.86800 0.14000
C 	C 	0.12500 0.20280 0.29720 -0.43700
C 	C 	0.12500 0.36800 0.13200 0.13300
C 	C 	0.67220 0.70280 0.20280 -0.45000
C 	C 	0.50700 0.86800 0.36800 0.13500
C 	C 	0.57780 0.29720 0.79720 -0.44600
C 	C 	0.74300 0.13200 0.63200 0.14200
S 	S 	0.62500 0.53406 0.96594 0.06200
S 	S 	0.12500 0.46594 0.03406 -0.14000
S 	S 	0.40906 0.96594 0.46594 0.05000
S 	S 	0.84094 0.03406 0.53406 -0.10700
N 	N 	0.61380 0.73750 0.89010 -0.15500
N 	N 	0.24140 0.26250 0.10990 -0.20700
N 	N 	0.49610 0.89010 0.26250 -0.16300
N 	N 	0.64870 0.10990 0.73750 -0.19900
N 	N 	0.00860 0.39010 0.23750 -0.19100
N 	N 	0.63620 0.60990 0.76250 -0.17700
N 	N 	0.60130 0.76250 0.39010 -0.17800
N 	N 	0.75390 0.23750 0.60990 -0.18500
O 	O 	0.60332 0.91619 0.84397 -0.35700
O 	O 	0.36348 0.08381 0.15603 -0.49000
O 	O 	0.55271 0.84397 0.08381 -0.43900
O 	O 	0.48049 0.15603 0.91619 -0.40500
O 	O 	0.88652 0.34397 0.41619 -0.40800
O 	O 	0.64668 0.65603 0.58381 -0.43000
O 	O 	0.76951 0.58381 0.34397 -0.43000
O 	O 	0.69729 0.41619 0.65603 -0.43100
