data_crystal

_cell_length_a 9.85040
_cell_length_b 9.85040
_cell_length_c 15.21000
_cell_angle_alpha 74.46190
_cell_angle_beta  74.46190
_cell_angle_gamma 83.19320

_symmetry_space_group_name_	'P 1'
_symmetry_space_group_name_H-M	'P 1'

loop_
_symmetry_equiv_pos_as_xyz
  x,y,z

loop_
_atom_site_label
_atom_site_type_symbol
_atom_site_fract_x
_atom_site_fract_y
_atom_site_fract_z
_atom_site_charge
Al	Al	0.93433 0.31537 0.12389 2.39000
Al	Al	0.02363 0.81011 0.16279 2.39200
Al	Al	0.12282 0.37506 0.41799 2.38800
Al	Al	0.68463 0.06567 0.37611 2.39000
Al	Al	0.18989 0.97637 0.33721 2.39100
Al	Al	0.62494 0.87718 0.08201 2.38700
Al	Al	0.06567 0.68463 0.87611 2.39000
Al	Al	0.97637 0.18989 0.83721 2.39200
Al	Al	0.87718 0.62494 0.58201 2.38800
Al	Al	0.31537 0.93433 0.62389 2.39000
Al	Al	0.81011 0.02363 0.66279 2.39100
Al	Al	0.37506 0.12282 0.91799 2.38700
P 	P 	0.31039 0.93827 0.12772 0.75600
P 	P 	0.86665 0.64119 0.07913 0.80300
P 	P 	0.95839 0.22331 0.32988 0.73900
P 	P 	0.06173 0.68961 0.37228 0.76600
P 	P 	0.35881 0.13335 0.42087 0.81100
P 	P 	0.77669 0.04161 0.17012 0.75500
P 	P 	0.68961 0.06173 0.87228 0.75600
P 	P 	0.13335 0.35881 0.92087 0.80300
P 	P 	0.04161 0.77669 0.67012 0.73900
P 	P 	0.93827 0.31039 0.62772 0.76600
P 	P 	0.64119 0.86665 0.57913 0.81100
P 	P 	0.22331 0.95839 0.82988 0.75500
O 	O 	0.20140 0.85440 0.11330 -0.80900
O 	O 	0.43980 0.83840 0.13640 -0.74300
O 	O 	0.25180 0.99580 0.21450 -0.81300
O 	O 	0.84590 0.48490 0.11040 -0.77100
O 	O 	0.01010 0.27090 0.22310 -0.77400
O 	O 	0.98020 0.67520 0.12050 -0.82800
O 	O 	0.91320 0.68580 0.97280 -0.79500
O 	O 	0.98270 0.33510 0.37410 -0.76100
O 	O 	0.35110 0.06590 0.04570 -0.76200
O 	O 	0.72720 0.71520 0.11270 -0.77800
O 	O 	0.03820 0.08660 0.36350 -0.83800
O 	O 	0.79910 0.20130 0.35990 -0.79500
O 	O 	0.14560 0.79860 0.38670 -0.81000
O 	O 	0.16160 0.56020 0.36360 -0.74000
O 	O 	0.00420 0.74820 0.28550 -0.80900
O 	O 	0.51510 0.15410 0.38960 -0.77000
O 	O 	0.72910 0.98990 0.27690 -0.78700
O 	O 	0.32480 0.01980 0.37950 -0.82200
O 	O 	0.31420 0.08680 0.52720 -0.80500
O 	O 	0.66490 0.01730 0.12590 -0.75700
O 	O 	0.93410 0.64890 0.45430 -0.77400
O 	O 	0.28480 0.27280 0.38730 -0.77500
O 	O 	0.91340 0.96180 0.13650 -0.85400
O 	O 	0.79870 0.20090 0.14010 -0.79800
O 	O 	0.79860 0.14560 0.88670 -0.80900
O 	O 	0.56020 0.16160 0.86360 -0.74300
O 	O 	0.74820 0.00420 0.78550 -0.81300
O 	O 	0.15410 0.51510 0.88960 -0.77100
O 	O 	0.98990 0.72910 0.77690 -0.77400
O 	O 	0.01980 0.32480 0.87950 -0.82800
O 	O 	0.08680 0.31420 0.02720 -0.79500
O 	O 	0.01730 0.66490 0.62590 -0.76100
O 	O 	0.64890 0.93410 0.95430 -0.76200
O 	O 	0.27280 0.28480 0.88730 -0.77800
O 	O 	0.96180 0.91340 0.63650 -0.83800
O 	O 	0.20090 0.79870 0.64010 -0.79500
O 	O 	0.85440 0.20140 0.61330 -0.81000
O 	O 	0.83840 0.43980 0.63640 -0.74000
O 	O 	0.99580 0.25180 0.71450 -0.80900
O 	O 	0.48490 0.84590 0.61040 -0.77000
O 	O 	0.27090 0.01010 0.72310 -0.78700
O 	O 	0.67520 0.98020 0.62050 -0.82200
O 	O 	0.68580 0.91320 0.47280 -0.80500
O 	O 	0.33510 0.98270 0.87410 -0.75700
O 	O 	0.06590 0.35110 0.54570 -0.77400
O 	O 	0.71520 0.72720 0.61270 -0.77500
O 	O 	0.08660 0.03820 0.86350 -0.85400
O 	O 	0.20130 0.79910 0.85990 -0.79800
