data_crystal

_cell_length_a 4.93870
_cell_length_b 8.18560
_cell_length_c 12.06000
_cell_angle_alpha 90.00000
_cell_angle_beta  90.00000
_cell_angle_gamma 92.04500

_symmetry_space_group_name_	'P 1'
_symmetry_space_group_name_H-M	'P 1'

loop_
_symmetry_equiv_pos_as_xyz
  x,y,z

loop_
_atom_site_label
_atom_site_type_symbol
_atom_site_fract_x
_atom_site_fract_y
_atom_site_fract_z
_atom_site_charge
Al	Al	0.75440 0.86180 0.25000 2.39700
Al	Al	0.24560 0.13820 0.75000 2.39000
Al	Al	0.50000 -0.00000 0.50000 2.37400
Al	Al	0.50000 0.00000 -0.00000 2.36700
P 	P 	0.99100 0.76590 0.48247 0.56100
P 	P 	0.00900 0.23410 0.98247 0.84900
P 	P 	0.00900 0.23410 0.51753 0.59900
P 	P 	0.99100 0.76590 0.01753 0.31400
H 	H 	0.69600 0.55100 0.52800 0.08200
H 	H 	0.93700 0.56500 0.61800 0.10800
H 	H 	0.30400 0.44900 0.02800 0.07500
H 	H 	0.06300 0.43500 0.11800 0.10700
H 	H 	0.30400 0.44900 0.47200 0.05600
H 	H 	0.06300 0.43500 0.38200 0.05100
H 	H 	0.69600 0.55100 0.97200 0.06300
H 	H 	0.93700 0.56500 0.88200 0.05200
C 	C 	0.91800 0.56440 0.53140 -0.20300
C 	C 	0.08200 0.43560 0.03140 -0.37800
C 	C 	0.08200 0.43560 0.46860 -0.11700
C 	C 	0.91800 0.56440 0.96860 0.06100
O 	O 	0.79720 0.87820 0.54180 -0.38700
O 	O 	0.28200 0.80770 0.50830 -0.42800
O 	O 	0.94640 0.76290 0.35710 -0.69300
O 	O 	0.20280 0.12180 0.04180 -0.93400
O 	O 	0.71800 0.19230 0.00830 -0.87700
O 	O 	0.05360 0.23710 0.85710 -0.76100
O 	O 	0.20280 0.12180 0.45820 -0.83000
O 	O 	0.71800 0.19230 0.49170 -0.75100
O 	O 	0.05360 0.23710 0.64290 -0.74400
O 	O 	0.79720 0.87820 0.95820 -0.28200
O 	O 	0.28200 0.80770 0.99170 -0.30400
O 	O 	0.94640 0.76290 0.14290 -0.67700
F 	F 	0.55720 0.96420 0.35280 -0.84700
F 	F 	0.44280 0.03580 0.85280 -1.20200
F 	F 	0.44280 0.03580 0.64720 -1.22600
F 	F 	0.55720 0.96420 0.14720 -0.86500
