data_crystal

_cell_length_a 9.48740
_cell_length_b 14.04900
_cell_length_c 14.04900
_cell_angle_alpha 101.59000
_cell_angle_beta  101.99100
_cell_angle_gamma 101.99100

_symmetry_space_group_name_	'P 1'
_symmetry_space_group_name_H-M	'P 1'

loop_
_symmetry_equiv_pos_as_xyz
  x,y,z

loop_
_atom_site_label
_atom_site_type_symbol
_atom_site_fract_x
_atom_site_fract_y
_atom_site_fract_z
_atom_site_charge
Zn	Zn	0.91120 0.27717 0.82421 1.21600
Zn	Zn	0.58880 0.17579 0.72283 1.21700
Zn	Zn	0.08880 0.72283 0.17579 1.21600
Zn	Zn	0.41120 0.82421 0.27717 1.21700
H 	H 	0.48720 0.66080 0.74940 0.06800
H 	H 	0.96880 0.82180 0.92660 0.07200
H 	H 	0.44380 0.48040 0.73440 0.03400
H 	H 	0.02620 0.99510 0.91350 0.03200
H 	H 	0.32810 0.58450 0.97590 0.08900
H 	H 	0.45240 0.33260 0.97280 0.08900
H 	H 	0.08780 0.49060 0.90540 0.00100
H 	H 	0.20840 0.24530 0.90630 -0.00400
H 	H 	0.01280 0.25060 0.33920 0.06800
H 	H 	0.53120 0.07340 0.17820 0.07300
H 	H 	0.05620 0.26560 0.51960 0.03500
H 	H 	0.47380 0.08650 0.00490 0.03100
H 	H 	0.17190 0.02410 0.41550 0.08900
H 	H 	0.04760 0.02720 0.66740 0.08900
H 	H 	0.41220 0.09460 0.50940 0.00100
H 	H 	0.29160 0.09370 0.75470 -0.00400
H 	H 	0.51280 0.33920 0.25060 0.06800
H 	H 	0.03120 0.17820 0.07340 0.07200
H 	H 	0.55620 0.51960 0.26560 0.03400
H 	H 	0.97380 0.00490 0.08650 0.03200
H 	H 	0.67190 0.41550 0.02410 0.08900
H 	H 	0.54760 0.66740 0.02720 0.08900
H 	H 	0.91220 0.50940 0.09460 0.00100
H 	H 	0.79160 0.75470 0.09370 -0.00400
H 	H 	0.98720 0.74940 0.66080 0.06800
H 	H 	0.46880 0.92660 0.82180 0.07300
H 	H 	0.94380 0.73440 0.48040 0.03500
H 	H 	0.52620 0.91350 0.99510 0.03100
H 	H 	0.82810 0.97590 0.58450 0.08900
H 	H 	0.95240 0.97280 0.33260 0.08900
H 	H 	0.58780 0.90540 0.49060 0.00100
H 	H 	0.70840 0.90630 0.24530 -0.00400
C 	C 	0.77990 0.78647 0.81313 0.01000
C 	C 	0.66690 0.49722 0.78062 -0.10800
C 	C 	0.69140 0.39635 0.77893 0.39500
C 	C 	0.56340 0.62955 0.76425 -0.08900
C 	C 	0.81890 0.06111 0.78533 0.38600
C 	C 	0.90860 0.84548 0.88072 -0.09400
C 	C 	0.53820 0.52511 0.75529 0.03300
C 	C 	0.42150 0.46999 0.97729 0.07000
C 	C 	0.83480 0.96347 0.80289 -0.11600
C 	C 	0.71070 0.67993 0.79687 0.00800
C 	C 	0.94120 0.94598 0.87382 0.03200
C 	C 	0.30770 0.51460 0.95940 -0.14300
C 	C 	0.38050 0.36720 0.95820 -0.14300
C 	C 	0.16270 0.45760 0.91740 0.09500
C 	C 	0.23320 0.31500 0.91740 0.09700
C 	C 	0.72010 0.18687 0.21353 0.01100
C 	C 	0.83310 0.21938 0.50278 -0.10800
C 	C 	0.80860 0.22107 0.60365 0.39500
C 	C 	0.93660 0.23575 0.37045 -0.08800
C 	C 	0.68110 0.21467 0.93889 0.38600
C 	C 	0.59140 0.11928 0.15452 -0.09500
C 	C 	0.96180 0.24471 0.47489 0.03300
C 	C 	0.07850 0.02271 0.53001 0.07100
C 	C 	0.66520 0.19711 0.03653 -0.11700
C 	C 	0.78930 0.20313 0.32007 0.00800
C 	C 	0.55880 0.12618 0.05402 0.03500
C 	C 	0.19230 0.04060 0.48540 -0.14300
C 	C 	0.11950 0.04180 0.63280 -0.14300
C 	C 	0.33730 0.08260 0.54240 0.09500
C 	C 	0.26680 0.08260 0.68500 0.09700
C 	C 	0.22010 0.21353 0.18687 0.01000
C 	C 	0.33310 0.50278 0.21938 -0.10800
C 	C 	0.30860 0.60365 0.22107 0.39500
C 	C 	0.43660 0.37045 0.23575 -0.08900
C 	C 	0.18110 0.93889 0.21467 0.38600
C 	C 	0.09140 0.15452 0.11928 -0.09400
C 	C 	0.46180 0.47489 0.24471 0.03300
C 	C 	0.57850 0.53001 0.02271 0.07000
C 	C 	0.16520 0.03653 0.19711 -0.11600
C 	C 	0.28930 0.32007 0.20313 0.00800
C 	C 	0.05880 0.05402 0.12618 0.03200
C 	C 	0.69230 0.48540 0.04060 -0.14300
C 	C 	0.61950 0.63280 0.04180 -0.14300
C 	C 	0.83730 0.54240 0.08260 0.09500
C 	C 	0.76680 0.68500 0.08260 0.09700
C 	C 	0.27990 0.81313 0.78647 0.01100
C 	C 	0.16690 0.78062 0.49722 -0.10800
C 	C 	0.19140 0.77893 0.39635 0.39500
C 	C 	0.06340 0.76425 0.62955 -0.08800
C 	C 	0.31890 0.78533 0.06111 0.38600
C 	C 	0.40860 0.88072 0.84548 -0.09500
C 	C 	0.03820 0.75529 0.52511 0.03300
C 	C 	0.92150 0.97729 0.46999 0.07100
C 	C 	0.33480 0.80289 0.96347 -0.11700
C 	C 	0.21070 0.79687 0.67993 0.00800
C 	C 	0.44120 0.87382 0.94598 0.03500
C 	C 	0.80770 0.95940 0.51460 -0.14300
C 	C 	0.88050 0.95820 0.36720 -0.14300
C 	C 	0.66270 0.91740 0.45760 0.09500
C 	C 	0.73320 0.91740 0.31500 0.09700
S 	S 	0.69826 0.85498 0.74022 0.02700
S 	S 	0.82003 0.59885 0.81699 0.03600
S 	S 	0.80174 0.25978 0.14502 0.02800
S 	S 	0.67997 0.18301 0.40115 0.03700
S 	S 	0.30174 0.14502 0.25978 0.02700
S 	S 	0.17997 0.40115 0.18301 0.03600
S 	S 	0.19826 0.74022 0.85498 0.02800
S 	S 	0.32003 0.81699 0.59885 0.03700
N 	N 	0.12540 0.35838 0.89316 -0.25900
N 	N 	0.37460 0.10684 0.64162 -0.25900
N 	N 	0.87460 0.64162 0.10684 -0.25900
N 	N 	0.62540 0.89316 0.35838 -0.25900
O 	O 	0.92800 0.13647 0.82911 -0.45700
O 	O 	0.82490 0.39335 0.80271 -0.46800
O 	O 	0.57810 0.32266 0.75372 -0.45200
O 	O 	0.69730 0.06179 0.73033 -0.46100
O 	O 	0.57200 0.17089 0.86353 -0.45700
O 	O 	0.67510 0.19729 0.60665 -0.46700
O 	O 	0.92190 0.24628 0.67734 -0.45200
O 	O 	0.80270 0.26967 0.93821 -0.46200
O 	O 	0.07200 0.86353 0.17089 -0.45700
O 	O 	0.17510 0.60665 0.19729 -0.46800
O 	O 	0.42190 0.67734 0.24628 -0.45200
O 	O 	0.30270 0.93821 0.26967 -0.46100
O 	O 	0.42800 0.82911 0.13647 -0.45700
O 	O 	0.32490 0.80271 0.39335 -0.46700
O 	O 	0.07810 0.75372 0.32266 -0.45200
O 	O 	0.19730 0.73033 0.06179 -0.46200
