data_crystal

_cell_length_a 6.64390
_cell_length_b 14.95400
_cell_length_c 15.08900
_cell_angle_alpha 90.00000
_cell_angle_beta  90.00000
_cell_angle_gamma 90.89100

_symmetry_space_group_name_	'P 1'
_symmetry_space_group_name_H-M	'P 1'

loop_
_symmetry_equiv_pos_as_xyz
  x,y,z

loop_
_atom_site_label
_atom_site_type_symbol
_atom_site_fract_x
_atom_site_fract_y
_atom_site_fract_z
_atom_site_charge
Al	Al	-0.00000 0.00000 -0.00000 2.33200
Al	Al	0.50000 0.50000 0.50000 2.39700
Al	Al	0.50000 0.00000 -0.00000 2.35400
Al	Al	0.00000 0.50000 0.50000 2.38000
H 	H 	0.74914 0.89654 0.02753 0.51800
H 	H 	0.56869 0.21458 0.37471 0.03700
H 	H 	0.57627 0.11246 0.25942 -0.08900
H 	H 	0.93498 0.37892 0.23834 0.12800
H 	H 	0.94267 0.27686 0.12300 -0.01100
H 	H 	0.75086 0.60346 0.52753 0.59300
H 	H 	0.93131 0.28542 0.87471 0.16000
H 	H 	0.92373 0.38754 0.75942 0.11800
H 	H 	0.56502 0.12108 0.73834 -0.01700
H 	H 	0.55733 0.22314 0.62300 -0.00800
H 	H 	0.25086 0.10346 0.97247 0.52100
H 	H 	0.43131 0.78542 0.62529 0.07900
H 	H 	0.42373 0.88754 0.74058 0.13400
H 	H 	0.06502 0.62108 0.76166 -0.01700
H 	H 	0.05733 0.72314 0.87700 0.07500
H 	H 	0.24914 0.39654 0.47247 0.45700
H 	H 	0.06869 0.71458 0.12529 -0.04200
H 	H 	0.07627 0.61246 0.24058 -0.07300
H 	H 	0.43498 0.87892 0.26166 0.13300
H 	H 	0.44267 0.77686 0.37700 0.07100
C 	C 	0.73591 0.37493 0.38966 0.37600
C 	C 	0.74728 0.30753 0.31677 -0.01200
C 	C 	0.64274 0.22737 0.32380 -0.13200
C 	C 	0.75777 0.12059 0.10382 0.57500
C 	C 	0.76078 0.18445 0.17995 -0.25700
C 	C 	0.64829 0.16604 0.25510 0.09800
C 	C 	0.86166 0.32560 0.24229 -0.12200
C 	C 	0.86734 0.26432 0.17354 0.11800
C 	C 	0.76409 0.12507 0.88966 0.41400
C 	C 	0.75272 0.19247 0.81677 -0.06000
C 	C 	0.85726 0.27263 0.82380 -0.01800
C 	C 	0.74223 0.37941 0.60382 0.53000
C 	C 	0.73922 0.31555 0.67995 -0.11800
C 	C 	0.85171 0.33396 0.75510 0.04500
C 	C 	0.63834 0.17440 0.74229 -0.04000
C 	C 	0.63266 0.23568 0.67354 0.01300
C 	C 	0.26409 0.62507 0.61034 0.45800
C 	C 	0.25272 0.69247 0.68323 -0.14300
C 	C 	0.35726 0.77263 0.67620 0.04800
C 	C 	0.24223 0.87941 0.89618 0.51300
C 	C 	0.23922 0.81555 0.82005 -0.04600
C 	C 	0.35171 0.83396 0.74490 -0.03000
C 	C 	0.13834 0.67440 0.75771 0.03600
C 	C 	0.13266 0.73568 0.82646 -0.04600
C 	C 	0.23591 0.87493 0.11034 0.41400
C 	C 	0.24728 0.80753 0.18323 -0.08700
C 	C 	0.14274 0.72737 0.17620 -0.07100
C 	C 	0.25777 0.62059 0.39618 0.56700
C 	C 	0.26078 0.68445 0.32005 -0.18700
C 	C 	0.14829 0.66604 0.24490 0.02800
C 	C 	0.36166 0.82560 0.25771 -0.05100
C 	C 	0.36734 0.76432 0.32646 0.06500
O 	O 	0.75077 0.94799 0.01019 -1.20700
O 	O 	0.92500 0.09544 0.07478 -0.80400
O 	O 	0.88399 0.42765 0.39896 -0.49100
O 	O 	0.58819 0.09544 0.07545 -0.93800
O 	O 	0.57943 0.37391 0.43677 -0.52700
O 	O 	0.74923 0.55201 0.51019 -1.27300
O 	O 	0.57500 0.40456 0.57478 -0.68200
O 	O 	0.61601 0.07235 0.89896 -0.63400
O 	O 	0.91181 0.40456 0.57545 -0.54600
O 	O 	0.92057 0.12609 0.93677 -0.32000
O 	O 	0.24923 0.05201 0.98981 -1.39600
O 	O 	0.07500 0.90456 0.92522 -0.53500
O 	O 	0.11601 0.57235 0.60104 -0.73000
O 	O 	0.41181 0.90456 0.92455 -0.41700
O 	O 	0.42057 0.62609 0.56323 -0.49800
O 	O 	0.25077 0.44799 0.48981 -1.39400
O 	O 	0.42500 0.59544 0.42522 -0.67200
O 	O 	0.38399 0.92765 0.10104 -0.56300
O 	O 	0.08819 0.59544 0.42455 -0.80300
O 	O 	0.07943 0.87391 0.06323 -0.67800
