data_crystal

_cell_length_a 10.96720
_cell_length_b 15.05870
_cell_length_c 15.05870
_cell_angle_alpha 114.30500
_cell_angle_beta  104.05000
_cell_angle_gamma 104.05000

_symmetry_space_group_name_	'P 1'
_symmetry_space_group_name_H-M	'P 1'

loop_
_symmetry_equiv_pos_as_xyz
  x,y,z

loop_
_atom_site_label
_atom_site_type_symbol
_atom_site_fract_x
_atom_site_fract_y
_atom_site_fract_z
_atom_site_charge
Fe	Fe	0.50000 0.50000 0.50000 1.10400
Fe	Fe	-0.00000 0.00000 0.50000 1.05400
Fe	Fe	-0.00000 0.50000 -0.00000 1.05600
H 	H 	0.23080 0.46400 0.34160 0.09300
H 	H 	0.47640 0.70600 0.68910 0.18600
H 	H 	0.34780 0.72910 0.70920 0.18000
H 	H 	0.44350 0.79960 0.67800 0.18600
H 	H 	0.03170 0.46810 0.23730 0.22100
H 	H 	0.04320 0.58670 0.27290 0.21900
H 	H 	0.95090 0.51710 0.30680 0.27300
H 	H 	0.02830 0.76330 0.71580 0.16200
H 	H 	0.16540 0.74290 0.71880 0.16200
H 	H 	0.02080 0.65110 0.63300 0.15400
H 	H 	0.12900 0.85340 0.36920 0.16300
H 	H 	0.11880 0.73400 0.32480 0.15800
H 	H 	0.25910 0.83010 0.41230 0.17900
H 	H 	0.99130 0.86580 0.63130 0.16100
H 	H 	0.76920 0.53600 0.65840 0.09200
H 	H 	0.52360 0.29400 0.31090 0.16300
H 	H 	0.65220 0.27090 0.29080 0.15500
H 	H 	0.55650 0.20040 0.32200 0.14900
H 	H 	0.96830 0.53190 0.76270 0.13600
H 	H 	0.95680 0.41330 0.72710 0.13000
H 	H 	0.04910 0.48290 0.69320 0.08900
H 	H 	0.97170 0.23670 0.28420 0.21200
H 	H 	0.83460 0.25710 0.28120 0.17600
H 	H 	0.97920 0.34890 0.36700 0.20800
H 	H 	0.87100 0.14660 0.63080 0.18600
H 	H 	0.88120 0.26600 0.67520 0.19500
H 	H 	0.74090 0.16990 0.58770 0.18000
H 	H 	0.00870 0.13420 0.36870 0.03900
H 	H 	0.76680 0.87760 0.53600 0.10500
H 	H 	0.77040 0.98310 0.29400 0.19500
H 	H 	0.61870 0.98010 0.27090 0.17900
H 	H 	0.64390 0.87840 0.20040 0.16700
H 	H 	0.56360 0.76920 0.53190 0.18300
H 	H 	0.45650 0.68620 0.41330 0.17600
H 	H 	0.43380 0.78970 0.48290 0.18900
H 	H 	0.26500 0.95250 0.23670 0.19000
H 	H 	0.42250 0.97590 0.25710 0.17800
H 	H 	0.36970 0.98190 0.34890 0.19700
H 	H 	0.27560 0.51580 0.14660 0.16500
H 	H 	0.38480 0.59080 0.26600 0.17300
H 	H 	0.42900 0.58220 0.16990 0.17100
H 	H 	0.12550 0.76550 0.13420 0.07600
H 	H 	0.23320 0.12240 0.46400 0.08200
H 	H 	0.22960 0.01690 0.70600 0.15300
H 	H 	0.38130 0.01990 0.72910 0.15500
H 	H 	0.35610 0.12160 0.79960 0.16700
H 	H 	0.43640 0.23080 0.46810 0.17100
H 	H 	0.54350 0.31380 0.58670 0.17000
H 	H 	0.56620 0.21030 0.51710 0.17200
H 	H 	0.73500 0.04750 0.76330 0.18300
H 	H 	0.57750 0.02410 0.74290 0.15900
H 	H 	0.63030 0.01810 0.65110 0.16500
H 	H 	0.72440 0.48420 0.85340 0.18100
H 	H 	0.61520 0.40920 0.73400 0.17800
H 	H 	0.57100 0.41780 0.83010 0.18700
H 	H 	0.87450 0.23450 0.86580 0.13100
H 	H 	0.88920 0.65840 0.12240 0.09500
H 	H 	0.78730 0.31090 0.01690 0.16800
H 	H 	0.63860 0.29080 0.01990 0.15300
H 	H 	0.76550 0.32200 0.12160 0.16600
H 	H 	0.79440 0.76270 0.23080 0.18000
H 	H 	0.77030 0.72710 0.31380 0.18000
H 	H 	0.64410 0.69320 0.21030 0.17500
H 	H 	0.31250 0.28420 0.04750 0.16100
H 	H 	0.44660 0.28120 0.02410 0.14500
H 	H 	0.38780 0.36700 0.01810 0.15600
H 	H 	0.75980 0.63080 0.48420 0.18400
H 	H 	0.79400 0.67520 0.40920 0.19000
H 	H 	0.84680 0.58770 0.41780 0.19500
H 	H 	0.36000 0.36870 0.23450 0.10000
H 	H 	0.11080 0.34160 0.87760 0.09300
H 	H 	0.21270 0.68910 0.98310 0.18500
H 	H 	0.36140 0.70920 0.98010 0.18400
H 	H 	0.23450 0.67800 0.87840 0.17100
H 	H 	0.20560 0.23730 0.76920 0.17700
H 	H 	0.22970 0.27290 0.68620 0.16800
H 	H 	0.35590 0.30680 0.78970 0.18600
H 	H 	0.68750 0.71580 0.95250 0.20900
H 	H 	0.55340 0.71880 0.97590 0.19300
H 	H 	0.61220 0.63300 0.98190 0.20500
H 	H 	0.24020 0.36920 0.51580 0.15800
H 	H 	0.20600 0.32480 0.59080 0.16000
H 	H 	0.15320 0.41230 0.58220 0.16000
H 	H 	0.64000 0.63130 0.76550 0.10400
C 	C 	0.27458 0.26133 0.34831 0.07300
C 	C 	0.31601 0.65354 0.55259 0.20800
C 	C 	0.20026 0.65941 0.49137 -0.16200
C 	C 	0.15362 0.57196 0.39150 0.25900
C 	C 	0.40344 0.72847 0.66705 -0.57900
C 	C 	0.03477 0.53263 0.29388 -0.77400
C 	C 	0.08465 0.76654 0.59721 0.19200
C 	C 	0.14014 0.73997 0.52145 -0.11500
C 	C 	0.11641 0.80028 0.47245 0.18200
C 	C 	0.07382 0.72760 0.67266 -0.53700
C 	C 	0.15950 0.80485 0.38745 -0.53700
C 	C 	0.72542 0.73867 0.65169 0.06000
C 	C 	0.68399 0.34646 0.44741 0.17600
C 	C 	0.79974 0.34059 0.50863 -0.09400
C 	C 	0.84638 0.42804 0.60850 0.16000
C 	C 	0.59656 0.27153 0.33295 -0.52200
C 	C 	0.96523 0.46737 0.70612 -0.37100
C 	C 	0.91535 0.23346 0.40279 0.21800
C 	C 	0.85986 0.26003 0.47855 -0.14100
C 	C 	0.88359 0.19972 0.52755 0.20700
C 	C 	0.92618 0.27240 0.32734 -0.59300
C 	C 	0.84050 0.19515 0.61255 -0.57800
C 	C 	0.01325 0.08698 0.73867 -0.02200
C 	C 	0.66247 0.89905 0.34646 0.20300
C 	C 	0.54085 0.83196 0.34059 -0.13300
C 	C 	0.58166 0.81954 0.42804 0.22000
C 	C 	0.67497 0.93858 0.27153 -0.56600
C 	C 	0.50214 0.76125 0.46737 -0.58300
C 	C 	0.31811 0.83067 0.23346 0.20100
C 	C 	0.40017 0.78148 0.26003 -0.12600
C 	C 	0.31613 0.67217 0.19972 0.18400
C 	C 	0.34622 0.94506 0.27240 -0.57900
C 	C 	0.35465 0.58260 0.19515 -0.54700
C 	C 	0.98675 0.91302 0.26133 0.14200
C 	C 	0.33753 0.10095 0.65354 0.18000
C 	C 	0.45915 0.16804 0.65941 -0.12300
C 	C 	0.41834 0.18046 0.57196 0.19800
C 	C 	0.32503 0.06142 0.72847 -0.53100
C 	C 	0.49786 0.23875 0.53263 -0.56000
C 	C 	0.68189 0.16933 0.76654 0.20900
C 	C 	0.59983 0.21852 0.73997 -0.13100
C 	C 	0.68387 0.32783 0.80028 0.20300
C 	C 	0.65378 0.05494 0.72760 -0.55100
C 	C 	0.64535 0.41740 0.80485 -0.56500
C 	C 	0.92627 0.65169 0.91302 0.08000
C 	C 	0.76342 0.44741 0.10095 0.18800
C 	C 	0.70889 0.50863 0.16804 -0.13000
C 	C 	0.76212 0.60850 0.18046 0.21000
C 	C 	0.73639 0.33295 0.06142 -0.53700
C 	C 	0.74089 0.70612 0.23875 -0.57300
C 	C 	0.48744 0.40279 0.16933 0.19000
C 	C 	0.61869 0.47855 0.21852 -0.12600
C 	C 	0.64396 0.52755 0.32783 0.19900
C 	C 	0.40116 0.32734 0.05494 -0.52400
C 	C 	0.77205 0.61255 0.41740 -0.57900
C 	C 	0.07373 0.34831 0.08698 0.05000
C 	C 	0.23658 0.55259 0.89905 0.19800
C 	C 	0.29111 0.49137 0.83196 -0.12700
C 	C 	0.23788 0.39150 0.81954 0.21000
C 	C 	0.26361 0.66705 0.93858 -0.56600
C 	C 	0.25911 0.29388 0.76125 -0.57300
C 	C 	0.51256 0.59721 0.83067 0.21900
C 	C 	0.38131 0.52145 0.78148 -0.12900
C 	C 	0.35604 0.47245 0.67217 0.18600
C 	C 	0.59884 0.67266 0.94506 -0.60400
C 	C 	0.22795 0.38745 0.58260 -0.53100
S 	S 	0.18150 0.13464 0.28057 -0.17300
S 	S 	0.81850 0.86536 0.71943 -0.05100
S 	S 	0.04686 0.14593 0.86536 -0.11000
S 	S 	0.95314 0.85407 0.13464 -0.11100
S 	S 	0.90093 0.71943 0.85407 -0.06100
S 	S 	0.09907 0.28057 0.14593 -0.16200
N 	N 	0.34324 0.35147 0.39629 -0.27600
N 	N 	0.33935 0.56928 0.49339 -0.22200
N 	N 	0.23906 0.52164 0.39598 -0.21700
N 	N 	0.04913 0.85932 0.51418 -0.20300
N 	N 	0.03222 0.83715 0.59056 -0.24000
N 	N 	0.65676 0.64853 0.60371 -0.26900
N 	N 	0.66065 0.43072 0.50661 -0.21500
N 	N 	0.76094 0.47836 0.60402 -0.19100
N 	N 	0.95087 0.14068 0.48582 -0.20100
N 	N 	0.96778 0.16285 0.40944 -0.15500
N 	N 	0.99177 0.04482 0.64853 -0.22000
N 	N 	0.77007 0.92411 0.43072 -0.20000
N 	N 	0.71742 0.87434 0.47836 -0.20400
N 	N 	0.18981 0.65486 0.14068 -0.21900
N 	N 	0.19507 0.75341 0.16285 -0.20200
N 	N 	0.00823 0.95518 0.35147 -0.30200
N 	N 	0.22993 0.07589 0.56928 -0.22800
N 	N 	0.28258 0.12566 0.52164 -0.20400
N 	N 	0.81019 0.34514 0.85932 -0.18600
N 	N 	0.80493 0.24659 0.83715 -0.20100
N 	N 	0.94695 0.60371 0.95518 -0.23800
N 	N 	0.84596 0.50661 0.07589 -0.21200
N 	N 	0.84308 0.60402 0.12566 -0.20500
N 	N 	0.53495 0.48582 0.34514 -0.20800
N 	N 	0.44166 0.40944 0.24659 -0.19800
N 	N 	0.05305 0.39629 0.04482 -0.29400
N 	N 	0.15404 0.49339 0.92411 -0.21400
N 	N 	0.15692 0.39598 0.87434 -0.20400
N 	N 	0.46505 0.51418 0.65486 -0.20600
N 	N 	0.55834 0.59056 0.75341 -0.20400
