data_crystal

_cell_length_a 7.33600
_cell_length_b 11.31600
_cell_length_c 17.65300
_cell_angle_alpha 90.00000
_cell_angle_beta  90.59400
_cell_angle_gamma 90.00000

_symmetry_space_group_name_	'P 1'
_symmetry_space_group_name_H-M	'P 1'

loop_
_symmetry_equiv_pos_as_xyz
  x,y,z

loop_
_atom_site_label
_atom_site_type_symbol
_atom_site_fract_x
_atom_site_fract_y
_atom_site_fract_z
_atom_site_charge
Zn	Zn	0.50000 0.50000 -0.00000 1.14500
Zn	Zn	0.50000 0.00000 0.50000 1.16200
Zn	Zn	-0.00000 0.50000 -0.00000 1.12500
Zn	Zn	0.00000 0.00000 0.50000 1.14100
H 	H 	0.51800 0.31200 0.79380 0.05400
H 	H 	0.50300 0.20300 0.67770 0.02900
H 	H 	0.96200 0.51030 0.80890 0.05500
H 	H 	0.71200 0.52500 0.73180 0.05900
H 	H 	0.68400 0.41080 0.61950 0.04200
H 	H 	0.92800 0.29800 0.58200 0.05600
H 	H 	0.48200 0.81200 0.70620 0.04000
H 	H 	0.49700 0.70300 0.82230 0.03800
H 	H 	0.03800 0.01030 0.69110 -0.01800
H 	H 	0.28800 0.02500 0.76820 -0.08500
H 	H 	0.31600 0.91080 0.88050 0.09600
H 	H 	0.07200 0.79800 0.91800 0.08800
H 	H 	0.48200 0.68800 0.20620 0.02700
H 	H 	0.49700 0.79700 0.32230 0.05000
H 	H 	0.03800 0.48970 0.19110 0.07800
H 	H 	0.28800 0.47500 0.26820 0.03900
H 	H 	0.31600 0.58920 0.38050 0.02900
H 	H 	0.07200 0.70200 0.41800 0.07500
H 	H 	0.51800 0.18800 0.29380 0.04000
H 	H 	0.50300 0.29700 0.17770 0.04200
H 	H 	0.96200 0.98970 0.30890 0.14700
H 	H 	0.71200 0.97500 0.23180 0.18100
H 	H 	0.68400 0.08920 0.11950 -0.02200
H 	H 	0.92800 0.20200 0.08200 0.04400
C 	C 	0.26350 0.37749 0.78946 -0.08000
C 	C 	0.09220 0.32561 0.67341 -0.01600
C 	C 	0.10180 0.38851 0.74324 -0.04500
C 	C 	0.40050 0.25359 0.69394 0.00300
C 	C 	0.23360 0.17064 0.58448 0.40000
C 	C 	0.27370 0.42525 0.86928 0.37200
C 	C 	0.24390 0.25433 0.65113 -0.11500
C 	C 	0.93280 0.33950 0.62739 0.01400
C 	C 	0.40970 0.31554 0.76297 -0.02900
C 	C 	0.95470 0.46380 0.76326 0.04600
C 	C 	0.79430 0.41090 0.64931 -0.02700
C 	C 	0.80500 0.47430 0.71739 -0.06200
C 	C 	0.73650 0.87749 0.71054 -0.08800
C 	C 	0.90780 0.82561 0.82659 0.12300
C 	C 	0.89820 0.88851 0.75676 0.10300
C 	C 	0.59950 0.75359 0.80606 0.00300
C 	C 	0.76640 0.67064 0.91552 0.40200
C 	C 	0.72630 0.92525 0.63072 0.40000
C 	C 	0.75610 0.75433 0.84887 -0.10500
C 	C 	0.06720 0.83950 0.87261 -0.13800
C 	C 	0.59030 0.81554 0.73703 -0.00600
C 	C 	0.04530 0.96380 0.73674 -0.08900
C 	C 	0.20570 0.91090 0.85069 -0.07100
C 	C 	0.19500 0.97430 0.78261 0.16100
C 	C 	0.73650 0.62251 0.21054 -0.12800
C 	C 	0.90780 0.67439 0.32659 0.12300
C 	C 	0.89820 0.61149 0.25676 0.12400
C 	C 	0.59950 0.74641 0.30606 -0.01100
C 	C 	0.76640 0.82936 0.41552 0.40200
C 	C 	0.72630 0.57475 0.13072 0.41000
C 	C 	0.75610 0.74567 0.34887 -0.11500
C 	C 	0.06720 0.66050 0.37261 -0.19100
C 	C 	0.59030 0.68446 0.23703 0.00600
C 	C 	0.04530 0.53620 0.23674 -0.18400
C 	C 	0.20570 0.58910 0.35069 -0.00000
C 	C 	0.19500 0.52570 0.28261 -0.01400
C 	C 	0.26350 0.12251 0.28946 -0.12100
C 	C 	0.09220 0.17439 0.17341 -0.02000
C 	C 	0.10180 0.11149 0.24324 -0.02800
C 	C 	0.40050 0.24641 0.19394 -0.01200
C 	C 	0.23360 0.32936 0.08448 0.39600
C 	C 	0.27370 0.07475 0.36928 0.38600
C 	C 	0.24390 0.24567 0.15113 -0.12200
C 	C 	0.93280 0.16050 0.12739 -0.03400
C 	C 	0.40970 0.18446 0.26297 -0.01600
C 	C 	0.95470 0.03620 0.26326 -0.03900
C 	C 	0.79430 0.08910 0.14931 0.04300
C 	C 	0.80500 0.02570 0.21739 -0.23500
O 	O 	0.13195 0.41778 0.90846 -0.44100
O 	O 	0.42596 0.46343 0.89198 -0.43800
O 	O 	0.37568 0.15389 0.54703 -0.48500
O 	O 	0.08289 0.12068 0.57435 -0.55600
O 	O 	0.86805 0.91778 0.59154 -0.39600
O 	O 	0.57404 0.96343 0.60802 -0.43300
O 	O 	0.62432 0.65389 0.95297 -0.38900
O 	O 	0.91711 0.62068 0.92565 -0.40900
O 	O 	0.86805 0.58222 0.09154 -0.47300
O 	O 	0.57404 0.53657 0.10802 -0.51200
O 	O 	0.62432 0.84611 0.45297 -0.43500
O 	O 	0.91711 0.87932 0.42565 -0.42600
O 	O 	0.13195 0.08222 0.40846 -0.52900
O 	O 	0.42596 0.03657 0.39198 -0.52500
O 	O 	0.37568 0.34611 0.04703 -0.52100
O 	O 	0.08289 0.37932 0.07435 -0.56500
