data_crystal

_cell_length_a 17.87090
_cell_length_b 17.87090
_cell_length_c 18.63820
_cell_angle_alpha 90.00000
_cell_angle_beta  90.00000
_cell_angle_gamma 120.00000

_symmetry_space_group_name_	'P 1'
_symmetry_space_group_name_H-M	'P 1'

loop_
_symmetry_equiv_pos_as_xyz
  x,y,z

loop_
_atom_site_label
_atom_site_type_symbol
_atom_site_fract_x
_atom_site_fract_y
_atom_site_fract_z
_atom_site_charge
Zn	Zn	0.65866 0.04424 0.28935 1.21000
Zn	Zn	0.95576 0.61442 0.28935 1.21000
Zn	Zn	0.38558 0.34134 0.28935 1.21000
Zn	Zn	0.32533 0.37758 0.62268 1.21000
Zn	Zn	0.62242 0.94775 0.62268 1.21000
Zn	Zn	0.05225 0.67467 0.62268 1.21000
Zn	Zn	0.99200 0.71091 0.95602 1.20900
Zn	Zn	0.28909 0.28109 0.95602 1.21000
Zn	Zn	0.71891 0.00800 0.95602 1.20900
Zn	Zn	0.34134 0.95576 0.71065 1.21000
Zn	Zn	0.04424 0.38558 0.71065 1.21100
Zn	Zn	0.61442 0.65866 0.71065 1.21100
Zn	Zn	0.67467 0.62242 0.37732 1.21100
Zn	Zn	0.37758 0.05225 0.37732 1.21100
Zn	Zn	0.94775 0.32533 0.37732 1.21100
Zn	Zn	0.00800 0.28909 0.04398 1.21000
Zn	Zn	0.71091 0.71891 0.04398 1.21100
Zn	Zn	0.28109 0.99200 0.04398 1.21000
H 	H 	0.68700 0.81600 0.19300 0.22000
H 	H 	0.18400 0.87100 0.19300 0.22000
H 	H 	0.12900 0.31300 0.19300 0.22000
H 	H 	0.35367 0.14933 0.52633 0.22000
H 	H 	0.85067 0.20433 0.52633 0.22000
H 	H 	0.79567 0.64633 0.52633 0.22000
H 	H 	0.02033 0.48267 0.85967 0.22100
H 	H 	0.51733 0.53767 0.85967 0.22000
H 	H 	0.46233 0.97967 0.85967 0.22100
H 	H 	0.31300 0.18400 0.80700 0.22000
H 	H 	0.81600 0.12900 0.80700 0.22000
H 	H 	0.87100 0.68700 0.80700 0.22000
H 	H 	0.64633 0.85067 0.47367 0.22000
H 	H 	0.14933 0.79567 0.47367 0.22000
H 	H 	0.20433 0.35367 0.47367 0.22000
H 	H 	0.97967 0.51733 0.14033 0.22100
H 	H 	0.48267 0.46233 0.14033 0.22000
H 	H 	0.53767 0.02033 0.14033 0.22100
H 	H 	0.67000 0.79500 0.27180 0.19200
H 	H 	0.20500 0.87500 0.27180 0.19100
H 	H 	0.12500 0.33000 0.27180 0.19100
H 	H 	0.33667 0.12833 0.60513 0.19200
H 	H 	0.87167 0.20833 0.60513 0.19200
H 	H 	0.79167 0.66333 0.60513 0.19200
H 	H 	0.00333 0.46167 0.93847 0.19300
H 	H 	0.53833 0.54167 0.93847 0.19200
H 	H 	0.45833 0.99667 0.93847 0.19300
H 	H 	0.33000 0.20500 0.72820 0.19200
H 	H 	0.79500 0.12500 0.72820 0.19100
H 	H 	0.87500 0.67000 0.72820 0.19100
H 	H 	0.66333 0.87167 0.39487 0.19200
H 	H 	0.12833 0.79167 0.39487 0.19200
H 	H 	0.20833 0.33667 0.39487 0.19200
H 	H 	0.99667 0.53833 0.06153 0.19300
H 	H 	0.46167 0.45833 0.06153 0.19200
H 	H 	0.54167 0.00333 0.06153 0.19300
H 	H 	0.72790 0.87290 0.96440 0.20700
H 	H 	0.12710 0.85500 0.96440 0.20800
H 	H 	0.14500 0.27210 0.96440 0.20800
H 	H 	0.39457 0.20623 0.29773 0.20800
H 	H 	0.79377 0.18833 0.29773 0.20800
H 	H 	0.81167 0.60543 0.29773 0.20800
H 	H 	0.06123 0.53957 0.63107 0.20800
H 	H 	0.46043 0.52167 0.63107 0.20800
H 	H 	0.47833 0.93877 0.63107 0.20800
H 	H 	0.27210 0.12710 0.03560 0.20700
H 	H 	0.87290 0.14500 0.03560 0.20800
H 	H 	0.85500 0.72790 0.03560 0.20800
H 	H 	0.60543 0.79377 0.70227 0.20800
H 	H 	0.20623 0.81167 0.70227 0.20800
H 	H 	0.18833 0.39457 0.70227 0.20800
H 	H 	0.93877 0.46043 0.36893 0.20800
H 	H 	0.53957 0.47833 0.36893 0.20800
H 	H 	0.52167 0.06123 0.36893 0.20800
C 	C 	0.71679 0.07196 0.12337 0.27300
C 	C 	0.92804 0.64483 0.12337 0.27300
C 	C 	0.35517 0.28321 0.12337 0.27300
C 	C 	0.38346 0.40529 0.45670 0.27300
C 	C 	0.59471 0.97816 0.45670 0.27200
C 	C 	0.02184 0.61654 0.45670 0.27300
C 	C 	0.05012 0.73863 0.79004 0.27300
C 	C 	0.26137 0.31150 0.79004 0.27300
C 	C 	0.68850 0.94988 0.79004 0.27300
C 	C 	0.28321 0.92804 0.87663 0.27300
C 	C 	0.07196 0.35517 0.87663 0.27300
C 	C 	0.64483 0.71679 0.87663 0.27300
C 	C 	0.61654 0.59471 0.54330 0.27300
C 	C 	0.40529 0.02184 0.54330 0.27200
C 	C 	0.97816 0.38346 0.54330 0.27300
C 	C 	0.94988 0.26137 0.20996 0.27300
C 	C 	0.73863 0.68850 0.20996 0.27300
C 	C 	0.31150 0.05012 0.20996 0.27300
C 	C 	0.67505 0.90026 0.23746 0.27800
C 	C 	0.09974 0.77479 0.23746 0.27800
C 	C 	0.22521 0.32495 0.23746 0.27800
C 	C 	0.34172 0.23359 0.57079 0.27800
C 	C 	0.76641 0.10812 0.57079 0.27800
C 	C 	0.89188 0.65828 0.57079 0.27800
C 	C 	0.00838 0.56693 0.90413 0.28300
C 	C 	0.43307 0.44146 0.90413 0.27800
C 	C 	0.55854 0.99162 0.90413 0.28300
C 	C 	0.32495 0.09974 0.76254 0.27800
C 	C 	0.90026 0.22521 0.76254 0.27800
C 	C 	0.77479 0.67505 0.76254 0.27800
C 	C 	0.65828 0.76641 0.42921 0.27800
C 	C 	0.23359 0.89188 0.42921 0.27800
C 	C 	0.10812 0.34172 0.42921 0.27800
C 	C 	0.99162 0.43307 0.09587 0.28300
C 	C 	0.56693 0.55854 0.09587 0.27800
C 	C 	0.44146 0.00838 0.09587 0.28300
C 	C 	0.69486 0.95628 0.17406 -0.03100
C 	C 	0.04372 0.73858 0.17406 -0.03100
C 	C 	0.26142 0.30514 0.17406 -0.02900
C 	C 	0.36153 0.28961 0.50739 -0.02900
C 	C 	0.71039 0.07191 0.50739 -0.02900
C 	C 	0.92809 0.63847 0.50739 -0.02900
C 	C 	0.02819 0.62295 0.84073 -0.03000
C 	C 	0.37705 0.40525 0.84073 -0.02900
C 	C 	0.59475 0.97181 0.84073 -0.03000
C 	C 	0.30514 0.04372 0.82594 -0.03100
C 	C 	0.95628 0.26142 0.82594 -0.03100
C 	C 	0.73858 0.69486 0.82594 -0.02900
C 	C 	0.63847 0.71039 0.49261 -0.02900
C 	C 	0.28961 0.92809 0.49261 -0.02900
C 	C 	0.07191 0.36153 0.49261 -0.02900
C 	C 	0.97181 0.37705 0.15927 -0.03000
C 	C 	0.62295 0.59475 0.15927 -0.02900
C 	C 	0.40525 0.02819 0.15927 -0.03000
C 	C 	0.71244 0.95270 0.10232 -0.03100
C 	C 	0.04730 0.75974 0.10232 -0.03100
C 	C 	0.24026 0.28756 0.10232 -0.02900
C 	C 	0.37911 0.28603 0.43565 -0.02900
C 	C 	0.71397 0.09307 0.43565 -0.02900
C 	C 	0.90693 0.62089 0.43565 -0.02900
C 	C 	0.04577 0.61937 0.76899 -0.02900
C 	C 	0.38063 0.42641 0.76899 -0.02900
C 	C 	0.57359 0.95423 0.76899 -0.02900
C 	C 	0.28756 0.04730 0.89768 -0.03100
C 	C 	0.95270 0.24026 0.89768 -0.03100
C 	C 	0.75974 0.71244 0.89768 -0.02900
C 	C 	0.62089 0.71397 0.56435 -0.02900
C 	C 	0.28603 0.90693 0.56435 -0.02900
C 	C 	0.09307 0.37911 0.56435 -0.02900
C 	C 	0.95423 0.38063 0.23101 -0.02900
C 	C 	0.61937 0.57359 0.23101 -0.02900
C 	C 	0.42641 0.04577 0.23101 -0.02900
C 	C 	0.71656 0.88766 0.05636 0.24600
C 	C 	0.11234 0.82890 0.05636 0.24200
C 	C 	0.17110 0.28344 0.05636 0.24600
C 	C 	0.38323 0.22099 0.38969 0.24700
C 	C 	0.77901 0.16223 0.38969 0.24700
C 	C 	0.83777 0.61677 0.38969 0.24700
C 	C 	0.04989 0.55433 0.72303 0.24700
C 	C 	0.44567 0.49557 0.72303 0.24700
C 	C 	0.50443 0.95011 0.72303 0.24700
C 	C 	0.28344 0.11234 0.94364 0.24600
C 	C 	0.88766 0.17110 0.94364 0.24200
C 	C 	0.82890 0.71656 0.94364 0.24600
C 	C 	0.61677 0.77901 0.61031 0.24700
C 	C 	0.22099 0.83777 0.61031 0.24700
C 	C 	0.16223 0.38323 0.61031 0.24700
C 	C 	0.95011 0.44567 0.27697 0.24700
C 	C 	0.55433 0.50443 0.27697 0.24700
C 	C 	0.49557 0.04989 0.27697 0.24700
N 	N 	0.72624 0.02760 0.07024 -0.24900
N 	N 	0.97240 0.69864 0.07024 -0.25000
N 	N 	0.30136 0.27376 0.07024 -0.25100
N 	N 	0.39291 0.36093 0.40357 -0.25100
N 	N 	0.63907 0.03197 0.40357 -0.25100
N 	N 	0.96803 0.60709 0.40357 -0.25100
N 	N 	0.05957 0.69427 0.73691 -0.25100
N 	N 	0.30573 0.36531 0.73691 -0.25100
N 	N 	0.63469 0.94043 0.73691 -0.25100
N 	N 	0.27376 0.97240 0.92976 -0.24900
N 	N 	0.02760 0.30136 0.92976 -0.25000
N 	N 	0.69864 0.72624 0.92976 -0.25100
N 	N 	0.60709 0.63907 0.59643 -0.25100
N 	N 	0.36093 0.96803 0.59643 -0.25100
N 	N 	0.03197 0.39291 0.59643 -0.25100
N 	N 	0.94043 0.30573 0.26309 -0.25100
N 	N 	0.69427 0.63469 0.26309 -0.25100
N 	N 	0.36531 0.05957 0.26309 -0.25100
N 	N 	0.69770 0.03315 0.18639 -0.25100
N 	N 	0.96685 0.66455 0.18639 -0.25100
N 	N 	0.33545 0.30230 0.18639 -0.25300
N 	N 	0.36437 0.36648 0.51972 -0.25300
N 	N 	0.63352 0.99788 0.51972 -0.25200
N 	N 	0.00212 0.63563 0.51972 -0.25200
N 	N 	0.03103 0.69982 0.85306 -0.25100
N 	N 	0.30018 0.33122 0.85306 -0.25200
N 	N 	0.66878 0.96897 0.85306 -0.25200
N 	N 	0.30230 0.96685 0.81361 -0.25100
N 	N 	0.03315 0.33545 0.81361 -0.25100
N 	N 	0.66455 0.69770 0.81361 -0.25300
N 	N 	0.63563 0.63352 0.48028 -0.25300
N 	N 	0.36648 0.00212 0.48028 -0.25200
N 	N 	0.99788 0.36437 0.48028 -0.25200
N 	N 	0.96897 0.30018 0.14694 -0.25100
N 	N 	0.69982 0.66878 0.14694 -0.25200
N 	N 	0.33122 0.03103 0.14694 -0.25200
N 	N 	0.67450 0.82706 0.23181 -0.37000
N 	N 	0.17294 0.84744 0.23181 -0.37000
N 	N 	0.15256 0.32550 0.23181 -0.37000
N 	N 	0.34117 0.16039 0.56514 -0.37000
N 	N 	0.83961 0.18077 0.56514 -0.37000
N 	N 	0.81923 0.65883 0.56514 -0.37000
N 	N 	0.00783 0.49373 0.89848 -0.37100
N 	N 	0.50627 0.51411 0.89848 -0.37000
N 	N 	0.48589 0.99217 0.89848 -0.37100
N 	N 	0.32550 0.17294 0.76819 -0.37000
N 	N 	0.82706 0.15256 0.76819 -0.37000
N 	N 	0.84744 0.67450 0.76819 -0.37000
N 	N 	0.65883 0.83961 0.43486 -0.37000
N 	N 	0.16039 0.81923 0.43486 -0.37000
N 	N 	0.18077 0.34117 0.43486 -0.37000
N 	N 	0.99217 0.50627 0.10152 -0.37100
N 	N 	0.49373 0.48589 0.10152 -0.37000
N 	N 	0.51411 0.00783 0.10152 -0.37100
N 	N 	0.72900 0.90785 0.98898 -0.44400
N 	N 	0.09215 0.82115 0.98898 -0.44100
N 	N 	0.17885 0.27100 0.98898 -0.44500
N 	N 	0.39567 0.24118 0.32231 -0.44500
N 	N 	0.75882 0.15448 0.32231 -0.44500
N 	N 	0.84552 0.60433 0.32231 -0.44500
N 	N 	0.06233 0.57452 0.65565 -0.44500
N 	N 	0.42548 0.48782 0.65565 -0.44500
N 	N 	0.51218 0.93767 0.65565 -0.44500
N 	N 	0.27100 0.09215 0.01102 -0.44400
N 	N 	0.90785 0.17885 0.01102 -0.44100
N 	N 	0.82115 0.72900 0.01102 -0.44500
N 	N 	0.60433 0.75882 0.67769 -0.44500
N 	N 	0.24118 0.84552 0.67769 -0.44500
N 	N 	0.15448 0.39567 0.67769 -0.44500
N 	N 	0.93767 0.42548 0.34435 -0.44500
N 	N 	0.57452 0.51218 0.34435 -0.44500
N 	N 	0.48782 0.06233 0.34435 -0.44500
Cl	Cl	0.73082 0.17310 0.11179 -0.40800
Cl	Cl	0.82690 0.55772 0.11179 -0.40900
Cl	Cl	0.44228 0.26918 0.11179 -0.40900
Cl	Cl	0.39749 0.50643 0.44512 -0.40900
Cl	Cl	0.49357 0.89105 0.44512 -0.40900
Cl	Cl	0.10895 0.60251 0.44512 -0.41000
Cl	Cl	0.06415 0.83977 0.77846 -0.40700
Cl	Cl	0.16023 0.22439 0.77846 -0.40900
Cl	Cl	0.77561 0.93585 0.77846 -0.40900
Cl	Cl	0.26918 0.82690 0.88821 -0.40800
Cl	Cl	0.17310 0.44228 0.88821 -0.40900
Cl	Cl	0.55772 0.73082 0.88821 -0.40900
Cl	Cl	0.60251 0.49357 0.55488 -0.40900
Cl	Cl	0.50643 0.10895 0.55488 -0.40900
Cl	Cl	0.89105 0.39749 0.55488 -0.41000
Cl	Cl	0.93585 0.16023 0.22154 -0.40700
Cl	Cl	0.83977 0.77561 0.22154 -0.40900
Cl	Cl	0.22439 0.06415 0.22154 -0.40900
O 	O 	0.65961 0.92606 0.29536 -0.40100
O 	O 	0.07394 0.73355 0.29536 -0.40100
O 	O 	0.26645 0.34039 0.29536 -0.40000
O 	O 	0.32628 0.25939 0.62869 -0.40000
O 	O 	0.74061 0.06688 0.62869 -0.40000
O 	O 	0.93312 0.67372 0.62869 -0.40000
O 	O 	0.99294 0.59273 0.96203 -0.40400
O 	O 	0.40727 0.40022 0.96203 -0.40000
O 	O 	0.59978 0.00706 0.96203 -0.40500
O 	O 	0.34039 0.07394 0.70464 -0.40100
O 	O 	0.92606 0.26645 0.70464 -0.40100
O 	O 	0.73355 0.65961 0.70464 -0.40000
O 	O 	0.67372 0.74061 0.37131 -0.40000
O 	O 	0.25939 0.93312 0.37131 -0.40000
O 	O 	0.06688 0.32628 0.37131 -0.40000
O 	O 	0.00706 0.40727 0.03797 -0.40400
O 	O 	0.59273 0.59978 0.03797 -0.40000
O 	O 	0.40022 0.99294 0.03797 -0.40500
O 	O 	0.70787 0.81920 0.08612 -0.44200
O 	O 	0.18080 0.88867 0.08612 -0.44300
O 	O 	0.11133 0.29213 0.08612 -0.44300
O 	O 	0.37454 0.15253 0.41945 -0.44200
O 	O 	0.84747 0.22200 0.41945 -0.44200
O 	O 	0.77800 0.62546 0.41945 -0.44200
O 	O 	0.04120 0.48587 0.75279 -0.44200
O 	O 	0.51413 0.55534 0.75279 -0.44200
O 	O 	0.44466 0.95880 0.75279 -0.44200
O 	O 	0.29213 0.18080 0.91388 -0.44200
O 	O 	0.81920 0.11133 0.91388 -0.44300
O 	O 	0.88867 0.70787 0.91388 -0.44300
O 	O 	0.62546 0.84747 0.58055 -0.44200
O 	O 	0.15253 0.77800 0.58055 -0.44200
O 	O 	0.22200 0.37454 0.58055 -0.44200
O 	O 	0.95880 0.51413 0.24721 -0.44200
O 	O 	0.48587 0.44466 0.24721 -0.44200
O 	O 	0.55534 0.04120 0.24721 -0.44200
