data_crystal

_cell_length_a 5.58070
_cell_length_b 13.79300
_cell_length_c 24.06400
_cell_angle_alpha 90.00000
_cell_angle_beta  95.91000
_cell_angle_gamma 90.00000

_symmetry_space_group_name_	'P 1'
_symmetry_space_group_name_H-M	'P 1'

loop_
_symmetry_equiv_pos_as_xyz
  x,y,z

loop_
_atom_site_label
_atom_site_type_symbol
_atom_site_fract_x
_atom_site_fract_y
_atom_site_fract_z
_atom_site_charge
Zn	Zn	0.99829 0.57622 0.55017 1.21700
Zn	Zn	0.69106 0.75277 0.49411 1.19400
Zn	Zn	0.00171 0.07622 0.94983 1.21600
Zn	Zn	0.30894 0.25277 0.00589 1.17900
Zn	Zn	0.00171 0.42378 0.44983 1.21500
Zn	Zn	0.30894 0.24723 0.50589 1.19100
Zn	Zn	0.99829 0.92378 0.05017 1.21400
Zn	Zn	0.69106 0.74723 0.99411 1.20600
Zn	Zn	0.50000 0.50000 0.50000 1.22000
Zn	Zn	0.50000 0.00000 -0.00000 1.19600
H 	H 	0.71960 0.51320 0.68810 0.00900
H 	H 	0.64780 0.47490 0.74550 0.00900
H 	H 	0.50170 0.36770 0.67460 0.18900
H 	H 	0.28290 0.41450 0.70090 0.20600
H 	H 	0.46900 0.89020 0.67790 0.01000
H 	H 	0.52270 0.82110 0.62910 0.00200
H 	H 	0.22990 0.93010 0.59660 0.18400
H 	H 	0.07050 0.90110 0.64370 0.22100
H 	H 	0.83400 0.71730 0.77980 0.00600
H 	H 	0.92360 0.61760 0.80550 0.00900
H 	H 	0.20650 0.70320 0.86780 0.18300
H 	H 	0.08940 0.80050 0.84460 0.18500
H 	H 	0.28040 0.01320 0.81190 0.03700
H 	H 	0.35220 0.97490 0.75450 0.07500
H 	H 	0.49830 0.86770 0.82540 0.16400
H 	H 	0.71710 0.91450 0.79910 0.18700
H 	H 	0.53100 0.39020 0.82210 0.00500
H 	H 	0.47730 0.32110 0.87090 0.00200
H 	H 	0.77010 0.43010 0.90340 0.17800
H 	H 	0.92950 0.40110 0.85630 0.21300
H 	H 	0.16600 0.21730 0.72020 0.00600
H 	H 	0.07640 0.11760 0.69450 0.00300
H 	H 	0.79350 0.20320 0.63220 0.17500
H 	H 	0.91060 0.30050 0.65540 0.17800
H 	H 	0.28040 0.48680 0.31190 0.00800
H 	H 	0.35220 0.52510 0.25450 0.00800
H 	H 	0.49830 0.63230 0.32540 0.18900
H 	H 	0.71710 0.58550 0.29910 0.20700
H 	H 	0.53100 0.10980 0.32210 -0.00200
H 	H 	0.47730 0.17890 0.37090 -0.00300
H 	H 	0.77010 0.06990 0.40340 0.16400
H 	H 	0.92950 0.09890 0.35630 0.20600
H 	H 	0.16600 0.28270 0.22020 0.00700
H 	H 	0.07640 0.38240 0.19450 0.01100
H 	H 	0.79350 0.29680 0.13220 0.17400
H 	H 	0.91060 0.19950 0.15540 0.17500
H 	H 	0.71960 0.98680 0.18810 -0.02100
H 	H 	0.64780 0.02510 0.24550 -0.05700
H 	H 	0.50170 0.13230 0.17460 0.21200
H 	H 	0.28290 0.08550 0.20090 0.22100
H 	H 	0.46900 0.60980 0.17790 0.00400
H 	H 	0.52270 0.67890 0.12910 -0.00200
H 	H 	0.22990 0.56990 0.09660 0.16700
H 	H 	0.07050 0.59890 0.14370 0.21000
H 	H 	0.83400 0.78270 0.27980 0.00800
H 	H 	0.92360 0.88240 0.30550 0.01600
H 	H 	0.20650 0.79680 0.36780 0.18100
H 	H 	0.08940 0.69950 0.34460 0.17900
C 	C 	0.49190 0.67010 0.68161 0.29700
C 	C 	0.19120 0.76100 0.72690 0.29300
C 	C 	0.30010 0.59670 0.75845 0.29300
C 	C 	0.58480 0.50130 0.70960 0.16500
C 	C 	0.41580 0.42790 0.67903 -0.48600
C 	C 	0.31900 0.46620 0.62220 0.50100
C 	C 	0.40260 0.83830 0.65380 0.17900
C 	C 	0.18180 0.87610 0.61880 -0.49500
C 	C 	0.04960 0.80320 0.58000 0.49800
C 	C 	0.97320 0.68320 0.79770 0.16100
C 	C 	0.87060 0.72530 0.89270 0.43200
C 	C 	0.05750 0.73280 0.85170 -0.45800
C 	C 	0.50810 0.17010 0.81839 0.29300
C 	C 	0.80880 0.26100 0.77310 0.29300
C 	C 	0.69990 0.09670 0.74155 0.28900
C 	C 	0.41520 0.00130 0.79040 0.02700
C 	C 	0.58420 0.92790 0.82097 -0.39500
C 	C 	0.68100 0.96620 0.87780 0.51200
C 	C 	0.59740 0.33830 0.84620 0.17700
C 	C 	0.81820 0.37610 0.88120 -0.48800
C 	C 	0.95040 0.30320 0.92000 0.49600
C 	C 	0.02680 0.18320 0.70230 0.15200
C 	C 	0.12940 0.22530 0.60730 0.42600
C 	C 	0.94250 0.23280 0.64830 -0.44600
C 	C 	0.50810 0.32990 0.31839 0.29700
C 	C 	0.80880 0.23900 0.27310 0.29400
C 	C 	0.69990 0.40330 0.24155 0.29300
C 	C 	0.41520 0.49870 0.29040 0.16600
C 	C 	0.58420 0.57210 0.32097 -0.48600
C 	C 	0.68100 0.53380 0.37780 0.50100
C 	C 	0.59740 0.16170 0.34620 0.17900
C 	C 	0.81820 0.12390 0.38120 -0.48500
C 	C 	0.95040 0.19680 0.42000 0.49600
C 	C 	0.02680 0.31680 0.20230 0.15000
C 	C 	0.12940 0.27470 0.10730 0.42800
C 	C 	0.94250 0.26720 0.14830 -0.44500
C 	C 	0.49190 0.82990 0.18161 0.30100
C 	C 	0.19120 0.73900 0.22690 0.29500
C 	C 	0.30010 0.90330 0.25845 0.29800
C 	C 	0.58480 0.99870 0.20960 0.30100
C 	C 	0.41580 0.07210 0.17903 -0.56900
C 	C 	0.31900 0.03380 0.12220 0.47600
C 	C 	0.40260 0.66170 0.15380 0.17700
C 	C 	0.18180 0.62390 0.11880 -0.48600
C 	C 	0.04960 0.69680 0.08000 0.49200
C 	C 	0.97320 0.81680 0.29770 0.15500
C 	C 	0.87060 0.77470 0.39270 0.43200
C 	C 	0.05750 0.76720 0.35170 -0.45200
N 	N 	0.36030 0.75330 0.68890 -0.20600
N 	N 	0.16150 0.67970 0.75905 -0.20900
N 	N 	0.46020 0.59420 0.71836 -0.20500
N 	N 	0.63970 0.25330 0.81110 -0.20600
N 	N 	0.83850 0.17970 0.74095 -0.20700
N 	N 	0.53980 0.09420 0.78164 -0.19200
N 	N 	0.63970 0.24670 0.31110 -0.20700
N 	N 	0.83850 0.32030 0.24095 -0.20800
N 	N 	0.53980 0.40580 0.28164 -0.20500
N 	N 	0.36030 0.74670 0.18890 -0.20700
N 	N 	0.16150 0.82030 0.25905 -0.20800
N 	N 	0.46020 0.90580 0.21836 -0.21800
O 	O 	0.28480 0.52990 0.79095 -0.24800
O 	O 	0.63760 0.66430 0.64742 -0.26000
O 	O 	0.07930 0.83450 0.73285 -0.25500
O 	O 	0.13260 0.72010 0.57481 -0.47900
O 	O 	0.85490 0.83530 0.55401 -0.51200
O 	O 	0.13200 0.51940 0.62105 -0.48800
O 	O 	0.83020 0.44030 0.51630 -0.64100
O 	O 	0.66160 0.62870 0.53393 -0.65300
O 	O 	0.94100 0.75620 0.94284 -0.50200
O 	O 	0.42990 0.44660 0.58119 -0.52200
O 	O 	0.66900 0.69420 0.87928 -0.37200
O 	O 	0.71520 0.02990 0.70905 -0.26500
O 	O 	0.36240 0.16430 0.85258 -0.26200
O 	O 	0.92070 0.33450 0.76715 -0.26000
O 	O 	0.86740 0.22010 0.92519 -0.46900
O 	O 	0.14510 0.33530 0.94599 -0.50100
O 	O 	0.86800 0.01940 0.87895 -0.50900
O 	O 	0.16980 0.94030 0.98370 -0.59700
O 	O 	0.33840 0.12870 0.96607 -0.63900
O 	O 	0.05900 0.25620 0.55716 -0.51600
O 	O 	0.57010 0.94660 0.91881 -0.49900
O 	O 	0.33100 0.19420 0.62072 -0.38000
O 	O 	0.71520 0.47010 0.20905 -0.24900
O 	O 	0.36240 0.33570 0.35258 -0.26100
O 	O 	0.92070 0.16550 0.26715 -0.26400
O 	O 	0.86740 0.27990 0.42519 -0.47900
O 	O 	0.14510 0.16470 0.44599 -0.52500
O 	O 	0.86800 0.48060 0.37895 -0.48600
O 	O 	0.16980 0.55970 0.48370 -0.64200
O 	O 	0.33840 0.37130 0.46607 -0.65400
O 	O 	0.05900 0.24380 0.05716 -0.52700
O 	O 	0.57010 0.55340 0.41881 -0.52200
O 	O 	0.33100 0.30580 0.12072 -0.37900
O 	O 	0.28480 0.97010 0.29095 -0.23000
O 	O 	0.63760 0.83570 0.14742 -0.25900
O 	O 	0.07930 0.66550 0.23285 -0.26100
O 	O 	0.13260 0.77990 0.07481 -0.48500
O 	O 	0.85490 0.66470 0.05401 -0.53000
O 	O 	0.13200 0.98060 0.12105 -0.45400
O 	O 	0.83020 0.05970 0.01630 -0.67500
O 	O 	0.66160 0.87130 0.03393 -0.66200
O 	O 	0.94100 0.74380 0.44284 -0.51200
O 	O 	0.42990 0.05340 0.08119 -0.53500
O 	O 	0.66900 0.80580 0.37928 -0.37200
