data_crystal

_cell_length_a 10.23040
_cell_length_b 10.52930
_cell_length_c 13.08530
_cell_angle_alpha 100.83600
_cell_angle_beta  90.73600
_cell_angle_gamma 113.42000

_symmetry_space_group_name_	'P 1'
_symmetry_space_group_name_H-M	'P 1'

loop_
_symmetry_equiv_pos_as_xyz
  x,y,z

loop_
_atom_site_label
_atom_site_type_symbol
_atom_site_fract_x
_atom_site_fract_y
_atom_site_fract_z
_atom_site_charge
Zn	Zn	0.34190 0.19524 0.43893 1.18800
Zn	Zn	0.65810 0.80476 0.56107 1.19500
Zn	Zn	0.50000 -0.00000 0.50000 1.16000
H 	H 	0.57950 0.54890 0.71730 0.02300
H 	H 	0.81260 0.32160 0.71810 0.02900
H 	H 	0.71460 0.70170 0.87020 0.09700
H 	H 	0.35700 0.47560 0.55280 -0.00600
H 	H 	0.73840 0.64450 0.06470 0.06000
H 	H 	0.22600 0.90490 0.11520 0.07300
H 	H 	0.13170 0.94050 0.87330 0.10700
H 	H 	0.30000 0.97960 0.75450 0.04700
H 	H 	0.38040 0.65940 0.80920 0.03700
H 	H 	0.22140 0.62830 0.93780 0.08600
H 	H 	0.21890 0.60210 0.58230 0.09300
H 	H 	0.90310 0.28150 0.39970 0.08200
H 	H 	0.05280 0.16420 0.37170 -0.01100
H 	H 	0.94060 0.46890 0.86900 0.09000
H 	H 	0.65230 0.67270 0.30860 0.30100
H 	H 	0.42050 0.45110 0.28270 0.02800
H 	H 	0.18740 0.67840 0.28190 0.03900
H 	H 	0.28540 0.29830 0.12980 0.07700
H 	H 	0.64300 0.52440 0.44720 -0.00300
H 	H 	0.26160 0.35550 0.93530 0.05700
H 	H 	0.77400 0.09510 0.88480 0.04300
H 	H 	0.86830 0.05950 0.12670 0.08000
H 	H 	0.70000 0.02040 0.24550 0.00200
H 	H 	0.61960 0.34060 0.19080 0.02800
H 	H 	0.77860 0.37170 0.06220 0.09000
H 	H 	0.78110 0.39790 0.41770 0.08600
H 	H 	0.09690 0.71850 0.60030 0.07900
H 	H 	0.94720 0.83580 0.62830 0.02100
H 	H 	0.05940 0.53110 0.13100 0.08600
H 	H 	0.34770 0.32730 0.69140 0.29800
C 	C 	0.58020 0.30690 0.61420 0.38600
C 	C 	0.67310 0.41070 0.70700 -0.14700
C 	C 	0.64990 0.53040 0.74920 0.06900
C 	C 	0.78840 0.39490 0.75010 0.07600
C 	C 	0.73330 0.62390 0.84060 -0.14100
C 	C 	0.84360 0.60130 0.88730 0.09400
C 	C 	0.26350 0.43530 0.52150 0.10700
C 	C 	0.91850 0.69020 0.98960 -0.03200
C 	C 	0.83720 0.69500 0.07490 -0.01900
C 	C 	0.90100 0.77360 0.17470 -0.05000
C 	C 	0.80500 0.78130 0.25800 0.37900
C 	C 	0.04770 0.85290 0.19130 -0.04800
C 	C 	0.12330 0.93300 0.29660 0.40900
C 	C 	0.12770 0.85120 0.10590 -0.02900
C 	C 	0.06400 0.77090 0.00680 -0.00500
C 	C 	0.45610 0.84260 0.68080 0.38200
C 	C 	0.18340 0.88450 0.86260 -0.13400
C 	C 	0.28220 0.90580 0.78910 0.06500
C 	C 	0.35390 0.81990 0.76650 -0.12500
C 	C 	0.33130 0.71760 0.82240 0.06400
C 	C 	0.23520 0.69810 0.89970 -0.13100
C 	C 	0.16120 0.78410 0.91860 0.08600
C 	C 	0.18130 0.51280 0.53840 -0.14700
C 	C 	0.04650 0.45980 0.49170 0.08400
C 	C 	0.99670 0.32490 0.43100 -0.14300
C 	C 	0.08620 0.25300 0.41610 0.09800
C 	C 	0.86760 0.48610 0.83950 -0.15000
C 	C 	0.41980 0.69310 0.38580 0.38200
C 	C 	0.32690 0.58930 0.29300 -0.12800
C 	C 	0.35010 0.46960 0.25080 0.05400
C 	C 	0.21160 0.60510 0.24990 0.06500
C 	C 	0.26670 0.37610 0.15940 -0.12400
C 	C 	0.15640 0.39870 0.11270 0.07700
C 	C 	0.73650 0.56470 0.47850 0.09700
C 	C 	0.08150 0.30980 0.01040 -0.01700
C 	C 	0.16280 0.30500 0.92510 -0.03200
C 	C 	0.09900 0.22640 0.82530 -0.07600
C 	C 	0.19500 0.21870 0.74200 0.38600
C 	C 	0.95230 0.14710 0.80870 -0.02400
C 	C 	0.87670 0.06700 0.70340 0.23100
C 	C 	0.87230 0.14880 0.89410 -0.05100
C 	C 	0.93600 0.22910 0.99320 -0.03000
C 	C 	0.54390 0.15740 0.31920 0.39100
C 	C 	0.81660 0.11550 0.13740 -0.16100
C 	C 	0.71780 0.09420 0.21090 0.07500
C 	C 	0.64610 0.18010 0.23350 -0.15500
C 	C 	0.66870 0.28240 0.17760 0.07400
C 	C 	0.76480 0.30190 0.10030 -0.15100
C 	C 	0.83880 0.21590 0.08140 0.09500
C 	C 	0.81870 0.48720 0.46160 -0.12800
C 	C 	0.95350 0.54020 0.50830 0.05900
C 	C 	0.00330 0.67510 0.56900 -0.11200
C 	C 	0.91380 0.74700 0.58390 0.08000
C 	C 	0.13240 0.51390 0.16050 -0.13200
N 	N 	0.21560 0.30750 0.46330 -0.26900
N 	N 	0.78440 0.69250 0.53670 -0.26000
O 	O 	0.82880 0.88920 0.32250 -0.28700
O 	O 	0.69630 0.66250 0.25800 -0.48800
O 	O 	0.20770 0.05870 0.30540 -0.49400
O 	O 	0.10030 0.86220 0.36850 -0.28800
O 	O 	0.46660 0.31570 0.58370 -0.48300
O 	O 	0.61850 0.20970 0.57140 -0.48700
O 	O 	0.50370 0.74870 0.65100 -0.47100
O 	O 	0.48480 0.95240 0.64590 -0.47100
O 	O 	0.17120 0.11080 0.67750 -0.34800
O 	O 	0.30370 0.33750 0.74200 -0.49500
O 	O 	0.79230 0.94130 0.69460 -0.35300
O 	O 	0.89970 0.13780 0.63150 -0.27700
O 	O 	0.53340 0.68430 0.41630 -0.47100
O 	O 	0.38150 0.79030 0.42860 -0.45200
O 	O 	0.49630 0.25130 0.34900 -0.47900
O 	O 	0.51520 0.04760 0.35410 -0.53200
