data_crystal

_cell_length_a 11.87390
_cell_length_b 11.87390
_cell_length_c 25.49400
_cell_angle_alpha 90.00000
_cell_angle_beta  90.00000
_cell_angle_gamma 120.00000

_symmetry_space_group_name_	'P 1'
_symmetry_space_group_name_H-M	'P 1'

loop_
_symmetry_equiv_pos_as_xyz
  x,y,z

loop_
_atom_site_label
_atom_site_type_symbol
_atom_site_fract_x
_atom_site_fract_y
_atom_site_fract_z
_atom_site_charge
Zn	Zn	0.41315 0.42694 0.06271 1.18500
Zn	Zn	0.57306 0.98621 0.06271 1.18500
Zn	Zn	0.01379 0.58685 0.06271 1.18500
Zn	Zn	0.57306 0.58685 0.43729 1.18500
Zn	Zn	0.41315 0.98621 0.43729 1.18500
Zn	Zn	0.01379 0.42694 0.43729 1.18500
Zn	Zn	0.58685 0.57306 0.93729 1.18600
Zn	Zn	0.42694 0.01379 0.93729 1.18600
Zn	Zn	0.98621 0.41315 0.93729 1.18600
Zn	Zn	0.42694 0.41315 0.56271 1.18600
Zn	Zn	0.58685 0.01379 0.56271 1.18600
Zn	Zn	0.98621 0.57306 0.56271 1.18600
H 	H 	0.39830 0.39060 0.26070 0.05700
H 	H 	0.60940 0.00770 0.26070 0.05700
H 	H 	0.99230 0.60170 0.26070 0.05700
H 	H 	0.60940 0.60170 0.23930 0.05700
H 	H 	0.39830 0.00770 0.23930 0.05700
H 	H 	0.99230 0.39060 0.23930 0.05700
H 	H 	0.60170 0.60940 0.73930 0.05700
H 	H 	0.39060 0.99230 0.73930 0.05700
H 	H 	0.00770 0.39830 0.73930 0.05700
H 	H 	0.39060 0.39830 0.76070 0.05700
H 	H 	0.60170 0.99230 0.76070 0.05700
H 	H 	0.00770 0.60940 0.76070 0.05700
H 	H 	0.22470 0.39350 0.97190 -0.04000
H 	H 	0.60650 0.83120 0.97190 -0.04000
H 	H 	0.16880 0.77530 0.97190 -0.03900
H 	H 	0.60650 0.77530 0.52810 -0.04100
H 	H 	0.22470 0.83120 0.52810 -0.04000
H 	H 	0.16880 0.39350 0.52810 -0.04100
H 	H 	0.77530 0.60650 0.02810 -0.04000
H 	H 	0.39350 0.16880 0.02810 -0.04000
H 	H 	0.83120 0.22470 0.02810 -0.03900
H 	H 	0.39350 0.22470 0.47190 -0.04100
H 	H 	0.77530 0.16880 0.47190 -0.04000
H 	H 	0.83120 0.60650 0.47190 -0.04100
H 	H 	0.39540 0.12250 0.16670 0.04300
H 	H 	0.87750 0.27290 0.16670 0.04300
H 	H 	0.72710 0.60460 0.16670 0.04300
H 	H 	0.87750 0.60460 0.33330 0.04300
H 	H 	0.39540 0.27290 0.33330 0.04300
H 	H 	0.72710 0.12250 0.33330 0.04300
H 	H 	0.60460 0.87750 0.83330 0.04300
H 	H 	0.12250 0.72710 0.83330 0.04300
H 	H 	0.27290 0.39540 0.83330 0.04300
H 	H 	0.12250 0.39540 0.66670 0.04300
H 	H 	0.60460 0.72710 0.66670 0.04300
H 	H 	0.27290 0.87750 0.66670 0.04300
H 	H 	0.24400 0.46600 0.14600 0.15600
H 	H 	0.53400 0.77800 0.14600 0.15600
H 	H 	0.22200 0.75600 0.14600 0.15600
H 	H 	0.53400 0.75600 0.35400 0.15600
H 	H 	0.24400 0.77800 0.35400 0.15600
H 	H 	0.22200 0.46600 0.35400 0.15600
H 	H 	0.75600 0.53400 0.85400 0.15600
H 	H 	0.46600 0.22200 0.85400 0.15600
H 	H 	0.77800 0.24400 0.85400 0.15600
H 	H 	0.46600 0.24400 0.64600 0.15600
H 	H 	0.75600 0.22200 0.64600 0.15600
H 	H 	0.77800 0.53400 0.64600 0.15600
H 	H 	0.13100 0.49700 0.15400 0.11700
H 	H 	0.50300 0.63400 0.15400 0.11700
H 	H 	0.36600 0.86900 0.15400 0.11700
H 	H 	0.50300 0.86900 0.34600 0.11700
H 	H 	0.13100 0.63400 0.34600 0.11700
H 	H 	0.36600 0.49700 0.34600 0.11700
H 	H 	0.86900 0.50300 0.84600 0.11700
H 	H 	0.49700 0.36600 0.84600 0.11700
H 	H 	0.63400 0.13100 0.84600 0.11700
H 	H 	0.49700 0.13100 0.65400 0.11700
H 	H 	0.86900 0.36600 0.65400 0.11700
H 	H 	0.63400 0.50300 0.65400 0.11700
C 	C 	0.40710 0.34890 0.15990 0.32300
C 	C 	0.65110 0.05820 0.15990 0.32500
C 	C 	0.94180 0.59290 0.15990 0.32500
C 	C 	0.65110 0.59290 0.34010 0.32300
C 	C 	0.40710 0.05820 0.34010 0.32400
C 	C 	0.94180 0.34890 0.34010 0.32400
C 	C 	0.59290 0.65110 0.84010 0.32300
C 	C 	0.34890 0.94180 0.84010 0.32500
C 	C 	0.05820 0.40710 0.84010 0.32500
C 	C 	0.34890 0.40710 0.65990 0.32300
C 	C 	0.59290 0.94180 0.65990 0.32400
C 	C 	0.05820 0.65110 0.65990 0.32400
C 	C 	0.40260 0.26960 0.20600 -0.07100
C 	C 	0.73040 0.13300 0.20600 -0.07100
C 	C 	0.86700 0.59740 0.20600 -0.07100
C 	C 	0.73040 0.59740 0.29400 -0.07100
C 	C 	0.40260 0.13300 0.29400 -0.07100
C 	C 	0.86700 0.26960 0.29400 -0.07100
C 	C 	0.59740 0.73040 0.79400 -0.07100
C 	C 	0.26960 0.86700 0.79400 -0.07100
C 	C 	0.13300 0.40260 0.79400 -0.07100
C 	C 	0.26960 0.40260 0.70600 -0.07100
C 	C 	0.59740 0.86700 0.70600 -0.07100
C 	C 	0.13300 0.73040 0.70600 -0.07100
C 	C 	0.39970 0.31350 0.25630 -0.02700
C 	C 	0.68650 0.08620 0.25630 -0.02600
C 	C 	0.91380 0.60030 0.25630 -0.02600
C 	C 	0.68650 0.60030 0.24370 -0.02700
C 	C 	0.39970 0.08620 0.24370 -0.02600
C 	C 	0.91380 0.31350 0.24370 -0.02600
C 	C 	0.60030 0.68650 0.74370 -0.02700
C 	C 	0.31350 0.91380 0.74370 -0.02600
C 	C 	0.08620 0.39970 0.74370 -0.02600
C 	C 	0.31350 0.39970 0.75630 -0.02700
C 	C 	0.60030 0.91380 0.75630 -0.02600
C 	C 	0.08620 0.68650 0.75630 -0.02600
C 	C 	0.16550 0.44760 0.07990 0.18300
C 	C 	0.55240 0.71790 0.07990 0.18400
C 	C 	0.28210 0.83450 0.07990 0.18300
C 	C 	0.55240 0.83450 0.42010 0.18400
C 	C 	0.16550 0.71790 0.42010 0.18400
C 	C 	0.28210 0.44760 0.42010 0.18400
C 	C 	0.83450 0.55240 0.92010 0.18300
C 	C 	0.44760 0.28210 0.92010 0.18400
C 	C 	0.71790 0.16550 0.92010 0.18300
C 	C 	0.44760 0.16550 0.57990 0.18400
C 	C 	0.83450 0.28210 0.57990 0.18400
C 	C 	0.71790 0.55240 0.57990 0.18400
C 	C 	0.19290 0.41300 0.00180 0.08100
C 	C 	0.58700 0.77990 0.00180 0.08100
C 	C 	0.22010 0.80710 0.00180 0.07900
C 	C 	0.58700 0.80710 0.49820 0.08200
C 	C 	0.19290 0.77990 0.49820 0.08200
C 	C 	0.22010 0.41300 0.49820 0.08200
C 	C 	0.80710 0.58700 0.99820 0.08100
C 	C 	0.41300 0.22010 0.99820 0.08100
C 	C 	0.77990 0.19290 0.99820 0.07900
C 	C 	0.41300 0.19290 0.50180 0.08200
C 	C 	0.80710 0.22010 0.50180 0.08200
C 	C 	0.77990 0.58700 0.50180 0.08200
C 	C 	0.39870 0.15530 0.20020 -0.01200
C 	C 	0.84470 0.24340 0.20020 -0.01100
C 	C 	0.75660 0.60130 0.20020 -0.01100
C 	C 	0.84470 0.60130 0.29980 -0.01200
C 	C 	0.39870 0.24340 0.29980 -0.01100
C 	C 	0.75660 0.15530 0.29980 -0.01100
C 	C 	0.60130 0.84470 0.79980 -0.01200
C 	C 	0.15530 0.75660 0.79980 -0.01100
C 	C 	0.24340 0.39870 0.79980 -0.01100
C 	C 	0.15530 0.39870 0.70020 -0.01200
C 	C 	0.60130 0.75660 0.70020 -0.01100
C 	C 	0.24340 0.84470 0.70020 -0.01100
N 	N 	0.07640 0.46010 0.05310 -0.27800
N 	N 	0.53990 0.61630 0.05310 -0.27800
N 	N 	0.38370 0.92360 0.05310 -0.27800
N 	N 	0.53990 0.92360 0.44690 -0.27800
N 	N 	0.07640 0.61630 0.44690 -0.27800
N 	N 	0.38370 0.46010 0.44690 -0.27800
N 	N 	0.92360 0.53990 0.94690 -0.27800
N 	N 	0.46010 0.38370 0.94690 -0.27800
N 	N 	0.61630 0.07640 0.94690 -0.27800
N 	N 	0.46010 0.07640 0.55310 -0.27800
N 	N 	0.92360 0.38370 0.55310 -0.27800
N 	N 	0.61630 0.53990 0.55310 -0.27800
N 	N 	0.24230 0.41950 0.05040 -0.30600
N 	N 	0.58050 0.82280 0.05040 -0.30600
N 	N 	0.17720 0.75770 0.05040 -0.30600
N 	N 	0.58050 0.75770 0.44960 -0.30600
N 	N 	0.24230 0.82280 0.44960 -0.30600
N 	N 	0.17720 0.41950 0.44960 -0.30600
N 	N 	0.75770 0.58050 0.94960 -0.30600
N 	N 	0.41950 0.17720 0.94960 -0.30600
N 	N 	0.82280 0.24230 0.94960 -0.30600
N 	N 	0.41950 0.24230 0.55040 -0.30600
N 	N 	0.75770 0.17720 0.55040 -0.30600
N 	N 	0.82280 0.58050 0.55040 -0.30600
N 	N 	0.17660 0.46050 0.13310 -0.30500
N 	N 	0.53950 0.71610 0.13310 -0.30500
N 	N 	0.28390 0.82340 0.13310 -0.30500
N 	N 	0.53950 0.82340 0.36690 -0.30500
N 	N 	0.17660 0.71610 0.36690 -0.30500
N 	N 	0.28390 0.46050 0.36690 -0.30500
N 	N 	0.82340 0.53950 0.86690 -0.30500
N 	N 	0.46050 0.28390 0.86690 -0.30500
N 	N 	0.71610 0.17660 0.86690 -0.30500
N 	N 	0.46050 0.17660 0.63310 -0.30500
N 	N 	0.82340 0.28390 0.63310 -0.30500
N 	N 	0.71610 0.53950 0.63310 -0.30500
N 	N 	0.09670 0.43660 0.00070 -0.26800
N 	N 	0.56340 0.66010 0.00070 -0.26800
N 	N 	0.33990 0.90330 0.00070 -0.26800
N 	N 	0.56340 0.90330 0.49930 -0.26800
N 	N 	0.09670 0.66010 0.49930 -0.26800
N 	N 	0.33990 0.43660 0.49930 -0.26800
N 	N 	0.90330 0.56340 0.99930 -0.26800
N 	N 	0.43660 0.33990 0.99930 -0.26800
N 	N 	0.66010 0.09670 0.99930 -0.26800
N 	N 	0.43660 0.09670 0.50070 -0.26800
N 	N 	0.90330 0.33990 0.50070 -0.26800
N 	N 	0.66010 0.56340 0.50070 -0.26800
O 	O 	0.41270 0.30730 0.11440 -0.47700
O 	O 	0.69270 0.10540 0.11440 -0.47700
O 	O 	0.89460 0.58730 0.11440 -0.47700
O 	O 	0.69270 0.58730 0.38560 -0.47700
O 	O 	0.41270 0.10540 0.38560 -0.47700
O 	O 	0.89460 0.30730 0.38560 -0.47700
O 	O 	0.58730 0.69270 0.88560 -0.47700
O 	O 	0.30730 0.89460 0.88560 -0.47700
O 	O 	0.10540 0.41270 0.88560 -0.47700
O 	O 	0.30730 0.41270 0.61440 -0.47700
O 	O 	0.58730 0.89460 0.61440 -0.47700
O 	O 	0.10540 0.69270 0.61440 -0.47700
O 	O 	0.40310 0.45040 0.16580 -0.36400
O 	O 	0.54960 0.95270 0.16580 -0.36500
O 	O 	0.04730 0.59690 0.16580 -0.36500
O 	O 	0.54960 0.59690 0.33420 -0.36400
O 	O 	0.40310 0.95270 0.33420 -0.36400
O 	O 	0.04730 0.45040 0.33420 -0.36500
O 	O 	0.59690 0.54960 0.83420 -0.36400
O 	O 	0.45040 0.04730 0.83420 -0.36500
O 	O 	0.95270 0.40310 0.83420 -0.36500
O 	O 	0.45040 0.40310 0.66580 -0.36400
O 	O 	0.59690 0.04730 0.66580 -0.36400
O 	O 	0.95270 0.54960 0.66580 -0.36500
