data_crystal

_cell_length_a 13.29800
_cell_length_b 13.29800
_cell_length_c 29.54400
_cell_angle_alpha 90.00000
_cell_angle_beta  90.00000
_cell_angle_gamma 120.00000

_symmetry_space_group_name_	'P 1'
_symmetry_space_group_name_H-M	'P 1'

loop_
_symmetry_equiv_pos_as_xyz
  x,y,z

loop_
_atom_site_label
_atom_site_type_symbol
_atom_site_fract_x
_atom_site_fract_y
_atom_site_fract_z
_atom_site_charge
Zn	Zn	0.46553 0.46537 0.10652 1.23400
Zn	Zn	0.53463 0.00016 0.77319 1.23400
Zn	Zn	0.99984 0.53447 0.43985 1.23300
Zn	Zn	0.46537 0.46553 0.89348 1.23300
Zn	Zn	0.00016 0.53463 0.22681 1.23300
Zn	Zn	0.53447 0.99984 0.56015 1.23300
Zn	Zn	0.28176 0.44995 0.18455 1.23800
Zn	Zn	0.55005 0.83181 0.85122 1.23800
Zn	Zn	0.16819 0.71824 0.51788 1.23800
Zn	Zn	0.44995 0.28176 0.81545 1.23800
Zn	Zn	0.83181 0.55005 0.14878 1.23800
Zn	Zn	0.71824 0.16819 0.48212 1.23800
H 	H 	0.73600 0.75370 0.16570 -0.04600
H 	H 	0.24630 0.98230 0.83237 -0.04600
H 	H 	0.01770 0.26400 0.49903 -0.04700
H 	H 	0.75370 0.73600 0.83430 -0.04600
H 	H 	0.98230 0.24630 0.16763 -0.04600
H 	H 	0.26400 0.01770 0.50097 -0.04700
H 	H 	0.88060 0.91640 0.19910 0.17800
H 	H 	0.08360 0.96420 0.86577 0.17900
H 	H 	0.03580 0.11940 0.53243 0.18000
H 	H 	0.91640 0.88060 0.80090 0.17800
H 	H 	0.96420 0.08360 0.13423 0.17900
H 	H 	0.11940 0.03580 0.46757 0.18000
H 	H 	0.64940 0.95370 0.27200 0.19100
H 	H 	0.04630 0.69570 0.93867 0.19300
H 	H 	0.30430 0.35060 0.60533 0.19400
H 	H 	0.95370 0.64940 0.72800 0.19100
H 	H 	0.69570 0.04630 0.06133 0.19300
H 	H 	0.35060 0.30430 0.39467 0.19400
H 	H 	0.50120 0.79020 0.23830 -0.05200
H 	H 	0.20980 0.71100 0.90497 -0.05200
H 	H 	0.28900 0.49880 0.57163 -0.05300
H 	H 	0.79020 0.50120 0.76170 -0.05200
H 	H 	0.71100 0.20980 0.09503 -0.05200
H 	H 	0.49880 0.28900 0.42837 -0.05300
H 	H 	0.83750 0.98990 0.33980 0.15900
H 	H 	0.01010 0.84760 0.00647 0.15800
H 	H 	0.15240 0.16250 0.67313 0.16600
H 	H 	0.98990 0.83750 0.66020 0.15900
H 	H 	0.84760 0.01010 0.99353 0.15800
H 	H 	0.16250 0.15240 0.32687 0.16600
H 	H 	0.83080 0.10170 0.39980 -0.04100
H 	H 	0.89830 0.72910 0.06647 -0.04000
H 	H 	0.27090 0.16920 0.73313 -0.04400
H 	H 	0.10170 0.83080 0.60020 -0.04100
H 	H 	0.72910 0.89830 0.93353 -0.04000
H 	H 	0.16920 0.27090 0.26687 -0.04400
H 	H 	0.85750 0.34320 0.31430 -0.04200
H 	H 	0.65680 0.51430 0.98097 -0.04100
H 	H 	0.48570 0.14250 0.64763 -0.04400
H 	H 	0.34320 0.85750 0.68570 -0.04200
H 	H 	0.51430 0.65680 0.01903 -0.04100
H 	H 	0.14250 0.48570 0.35237 -0.04400
H 	H 	0.85660 0.23180 0.25470 0.18900
H 	H 	0.76820 0.62480 0.92137 0.18800
H 	H 	0.37520 0.14340 0.58803 0.19100
H 	H 	0.23180 0.85660 0.74530 0.18900
H 	H 	0.62480 0.76820 0.07863 0.18800
H 	H 	0.14340 0.37520 0.41197 0.19100
H 	H 	0.05620 0.46650 0.09700 -0.04500
H 	H 	0.53350 0.58970 0.76367 -0.05100
H 	H 	0.41030 0.94380 0.43033 -0.04600
H 	H 	0.46650 0.05620 0.90300 -0.04500
H 	H 	0.58970 0.53350 0.23633 -0.05100
H 	H 	0.94380 0.41030 0.56967 -0.04600
H 	H 	0.92560 0.46620 0.04450 0.17000
H 	H 	0.53380 0.45940 0.71117 0.17800
H 	H 	0.54060 0.07440 0.37783 0.17000
H 	H 	0.46620 0.92560 0.95550 0.17000
H 	H 	0.45940 0.53380 0.28883 0.17800
H 	H 	0.07440 0.54060 0.62217 0.17000
H 	H 	0.15070 0.51330 0.94690 0.16900
H 	H 	0.48670 0.63740 0.61357 0.17400
H 	H 	0.36260 0.84930 0.28023 0.16900
H 	H 	0.51330 0.15070 0.05310 0.16900
H 	H 	0.63740 0.48670 0.38643 0.17400
H 	H 	0.84930 0.36260 0.71977 0.16900
H 	H 	0.28090 0.51600 0.99870 -0.03600
H 	H 	0.48400 0.76490 0.66537 -0.04200
H 	H 	0.23510 0.71910 0.33203 -0.03700
H 	H 	0.51600 0.28090 0.00130 -0.03600
H 	H 	0.76490 0.48400 0.33463 -0.04200
H 	H 	0.71910 0.23510 0.66797 -0.03700
H 	H 	0.90450 0.27410 0.97380 0.17600
H 	H 	0.72590 0.63040 0.64047 0.17600
H 	H 	0.36960 0.09550 0.30713 0.17600
H 	H 	0.27410 0.90450 0.02620 0.17600
H 	H 	0.63040 0.72590 0.35953 0.17600
H 	H 	0.09550 0.36960 0.69287 0.17600
H 	H 	0.78620 0.10950 0.93230 -0.05200
H 	H 	0.89050 0.67670 0.59897 -0.05200
H 	H 	0.32330 0.21380 0.26563 -0.05100
H 	H 	0.10950 0.78620 0.06770 -0.05200
H 	H 	0.67670 0.89050 0.40103 -0.05200
H 	H 	0.21380 0.32330 0.73437 -0.05100
H 	H 	0.74850 0.30890 0.83910 -0.04700
H 	H 	0.69110 0.43960 0.50577 -0.04800
H 	H 	0.56040 0.25150 0.17243 -0.04700
H 	H 	0.30890 0.74850 0.16090 -0.04700
H 	H 	0.43960 0.69110 0.49423 -0.04800
H 	H 	0.25150 0.56040 0.82757 -0.04700
H 	H 	0.85570 0.46640 0.88360 0.18000
H 	H 	0.53360 0.38930 0.55027 0.18100
H 	H 	0.61070 0.14430 0.21693 0.18100
H 	H 	0.46640 0.85570 0.11640 0.18000
H 	H 	0.38930 0.53360 0.44973 0.18100
H 	H 	0.14430 0.61070 0.78307 0.18100
C 	C 	0.50980 0.64610 0.17810 0.51300
C 	C 	0.35390 0.86370 0.84477 0.51300
C 	C 	0.13630 0.49020 0.51143 0.51300
C 	C 	0.64610 0.50980 0.82190 0.51300
C 	C 	0.86370 0.35390 0.15523 0.51300
C 	C 	0.49020 0.13630 0.48857 0.51300
C 	C 	0.60100 0.75310 0.19830 -0.31500
C 	C 	0.24690 0.84790 0.86497 -0.31500
C 	C 	0.15210 0.39900 0.53163 -0.31700
C 	C 	0.75310 0.60100 0.80170 -0.31500
C 	C 	0.84790 0.24690 0.13503 -0.31500
C 	C 	0.39900 0.15210 0.46837 -0.31700
C 	C 	0.71760 0.79360 0.18690 0.27300
C 	C 	0.20640 0.92400 0.85357 0.27500
C 	C 	0.07600 0.28240 0.52023 0.27600
C 	C 	0.79360 0.71760 0.81310 0.27300
C 	C 	0.92400 0.20640 0.14643 0.27500
C 	C 	0.28240 0.07600 0.47977 0.27600
C 	C 	0.80370 0.89080 0.20690 -0.38700
C 	C 	0.10920 0.91290 0.87357 -0.38900
C 	C 	0.08710 0.19630 0.54023 -0.39100
C 	C 	0.89080 0.80370 0.79310 -0.38700
C 	C 	0.91290 0.10920 0.12643 -0.38900
C 	C 	0.19630 0.08710 0.45977 -0.39100
C 	C 	0.77930 0.95180 0.23830 0.40200
C 	C 	0.04820 0.82750 0.90497 0.40500
C 	C 	0.17250 0.22070 0.57163 0.40700
C 	C 	0.95180 0.77930 0.76170 0.40200
C 	C 	0.82750 0.04820 0.09503 0.40500
C 	C 	0.22070 0.17250 0.42837 0.40700
C 	C 	0.66640 0.91360 0.25040 -0.40700
C 	C 	0.08640 0.75280 0.91707 -0.40900
C 	C 	0.24720 0.33360 0.58373 -0.41100
C 	C 	0.91360 0.66640 0.74960 -0.40700
C 	C 	0.75280 0.08640 0.08293 -0.40900
C 	C 	0.33360 0.24720 0.41627 -0.41100
C 	C 	0.57770 0.81520 0.23030 0.27800
C 	C 	0.18480 0.76250 0.89697 0.27900
C 	C 	0.23750 0.42230 0.56363 0.28100
C 	C 	0.81520 0.57770 0.76970 0.27800
C 	C 	0.76250 0.18480 0.10303 0.27900
C 	C 	0.42230 0.23750 0.43637 0.28100
C 	C 	0.85210 0.10720 0.29140 0.38100
C 	C 	0.89280 0.74490 0.95807 0.38000
C 	C 	0.25510 0.14790 0.62473 0.38800
C 	C 	0.10720 0.85210 0.70860 0.38100
C 	C 	0.74490 0.89280 0.04193 0.38000
C 	C 	0.14790 0.25510 0.37527 0.38800
C 	C 	0.84160 0.06090 0.33480 -0.34100
C 	C 	0.93910 0.78070 0.00147 -0.33900
C 	C 	0.21930 0.15840 0.66813 -0.35400
C 	C 	0.06090 0.84160 0.66520 -0.34100
C 	C 	0.78070 0.93910 0.99853 -0.33900
C 	C 	0.15840 0.21930 0.33187 -0.35400
C 	C 	0.83780 0.12870 0.37030 0.24100
C 	C 	0.87130 0.70910 0.03697 0.23900
C 	C 	0.29090 0.16220 0.70363 0.24800
C 	C 	0.12870 0.83780 0.62970 0.24100
C 	C 	0.70910 0.87130 0.96303 0.23900
C 	C 	0.16220 0.29090 0.29637 0.24800
C 	C 	0.84390 0.23280 0.36310 -0.30100
C 	C 	0.76720 0.61110 0.02977 -0.29900
C 	C 	0.38890 0.15610 0.69643 -0.30600
C 	C 	0.23280 0.84390 0.63690 -0.30100
C 	C 	0.61110 0.76720 0.97023 -0.29900
C 	C 	0.15610 0.38890 0.30357 -0.30600
C 	C 	0.85260 0.27200 0.31970 0.28000
C 	C 	0.72800 0.58060 0.98637 0.27800
C 	C 	0.41940 0.14740 0.65303 0.28600
C 	C 	0.27200 0.85260 0.68030 0.28000
C 	C 	0.58060 0.72800 0.01363 0.27800
C 	C 	0.14740 0.41940 0.34697 0.28600
C 	C 	0.85410 0.20620 0.28420 -0.40100
C 	C 	0.79380 0.64790 0.95087 -0.40000
C 	C 	0.35210 0.14590 0.61753 -0.40800
C 	C 	0.20620 0.85410 0.71580 -0.40100
C 	C 	0.64790 0.79380 0.04913 -0.40000
C 	C 	0.14590 0.35210 0.38247 -0.40800
C 	C 	0.86480 0.31250 0.40210 0.46100
C 	C 	0.68750 0.55230 0.06877 0.46000
C 	C 	0.44770 0.13520 0.73543 0.46200
C 	C 	0.31250 0.86480 0.59790 0.46100
C 	C 	0.55230 0.68750 0.93123 0.46000
C 	C 	0.13520 0.44770 0.26457 0.46200
C 	C 	0.25390 0.47240 0.08790 0.49100
C 	C 	0.52760 0.78150 0.75457 0.49500
C 	C 	0.21850 0.74610 0.42123 0.49100
C 	C 	0.47240 0.25390 0.91210 0.49100
C 	C 	0.78150 0.52760 0.24543 0.49500
C 	C 	0.74610 0.21850 0.57877 0.49100
C 	C 	0.17640 0.48270 0.05340 -0.28700
C 	C 	0.51730 0.69370 0.72007 -0.30000
C 	C 	0.30630 0.82360 0.38673 -0.28800
C 	C 	0.48270 0.17640 0.94660 -0.28700
C 	C 	0.69370 0.51730 0.27993 -0.30000
C 	C 	0.82360 0.30630 0.61327 -0.28800
C 	C 	0.07430 0.47310 0.06640 0.24600
C 	C 	0.52690 0.60120 0.73307 0.26700
C 	C 	0.39880 0.92570 0.39973 0.24800
C 	C 	0.47310 0.07430 0.93360 0.24600
C 	C 	0.60120 0.52690 0.26693 0.26700
C 	C 	0.92570 0.39880 0.60027 0.24800
C 	C 	0.99550 0.47300 0.03520 -0.36700
C 	C 	0.52700 0.52250 0.70187 -0.39200
C 	C 	0.47750 0.00450 0.36853 -0.36700
C 	C 	0.47300 0.99550 0.96480 -0.36700
C 	C 	0.52250 0.52700 0.29813 -0.39200
C 	C 	0.00450 0.47750 0.63147 -0.36700
C 	C 	0.02440 0.48310 0.99120 0.36300
C 	C 	0.51690 0.54130 0.65787 0.38000
C 	C 	0.45870 0.97560 0.32453 0.36100
C 	C 	0.48310 0.02440 0.00880 0.36300
C 	C 	0.54130 0.51690 0.34213 0.38000
C 	C 	0.97560 0.45870 0.67547 0.36100
C 	C 	0.13110 0.50150 0.97740 -0.36700
C 	C 	0.49850 0.62960 0.64407 -0.38300
C 	C 	0.37040 0.86890 0.31073 -0.36900
C 	C 	0.50150 0.13110 0.02260 -0.36700
C 	C 	0.62960 0.49850 0.35593 -0.38300
C 	C 	0.86890 0.37040 0.68927 -0.36900
C 	C 	0.20840 0.50250 0.00800 0.24200
C 	C 	0.49750 0.70590 0.67467 0.25900
C 	C 	0.29410 0.79160 0.34133 0.24500
C 	C 	0.50250 0.20840 0.99200 0.24200
C 	C 	0.70590 0.49750 0.32533 0.25900
C 	C 	0.79160 0.29410 0.65867 0.24500
C 	C 	0.89080 0.38460 0.93260 0.39900
C 	C 	0.61540 0.50620 0.59927 0.40100
C 	C 	0.49380 0.10920 0.26593 0.39900
C 	C 	0.38460 0.89080 0.06740 0.39900
C 	C 	0.50620 0.61540 0.40073 0.40100
C 	C 	0.10920 0.49380 0.73407 0.39900
C 	C 	0.87170 0.28010 0.94690 -0.40200
C 	C 	0.71990 0.59160 0.61357 -0.40400
C 	C 	0.40840 0.12830 0.28023 -0.40200
C 	C 	0.28010 0.87170 0.05310 -0.40200
C 	C 	0.59160 0.71990 0.38643 -0.40400
C 	C 	0.12830 0.40840 0.71977 -0.40200
C 	C 	0.80290 0.18180 0.92140 0.27000
C 	C 	0.81820 0.62110 0.58807 0.27200
C 	C 	0.37890 0.19710 0.25473 0.27100
C 	C 	0.18180 0.80290 0.07860 0.27000
C 	C 	0.62110 0.81820 0.41193 0.27200
C 	C 	0.19710 0.37890 0.74527 0.27100
C 	C 	0.75890 0.18910 0.88020 -0.29800
C 	C 	0.81090 0.56980 0.54687 -0.29900
C 	C 	0.43020 0.24110 0.21353 -0.29900
C 	C 	0.18910 0.75890 0.11980 -0.29800
C 	C 	0.56980 0.81090 0.45313 -0.29900
C 	C 	0.24110 0.43020 0.78647 -0.29900
C 	C 	0.77930 0.30070 0.86630 0.25800
C 	C 	0.69930 0.47860 0.53297 0.26000
C 	C 	0.52140 0.22070 0.19963 0.26000
C 	C 	0.30070 0.77930 0.13370 0.25800
C 	C 	0.47860 0.69930 0.46703 0.26000
C 	C 	0.22070 0.52140 0.80037 0.26000
C 	C 	0.84340 0.39420 0.89260 -0.38700
C 	C 	0.60580 0.44920 0.55927 -0.38900
C 	C 	0.55080 0.15660 0.22593 -0.38800
C 	C 	0.39420 0.84340 0.10740 -0.38700
C 	C 	0.44920 0.60580 0.44073 -0.38900
C 	C 	0.15660 0.55080 0.77407 -0.38800
C 	C 	0.68750 0.08600 0.85150 0.49700
C 	C 	0.91400 0.60150 0.51817 0.49900
C 	C 	0.39850 0.31250 0.18483 0.50300
C 	C 	0.08600 0.68750 0.14850 0.49700
C 	C 	0.60150 0.91400 0.48183 0.49900
C 	C 	0.31250 0.39850 0.81517 0.50300
O 	O 	0.53430 0.60660 0.14540 -0.52600
O 	O 	0.39340 0.92770 0.81207 -0.52500
O 	O 	0.07230 0.46570 0.47873 -0.52600
O 	O 	0.60660 0.53430 0.85460 -0.52600
O 	O 	0.92770 0.39340 0.18793 -0.52500
O 	O 	0.46570 0.07230 0.52127 -0.52600
O 	O 	0.41130 0.60180 0.19660 -0.52500
O 	O 	0.39820 0.80950 0.86327 -0.52400
O 	O 	0.19050 0.58870 0.52993 -0.52500
O 	O 	0.60180 0.41130 0.80340 -0.52500
O 	O 	0.80950 0.39820 0.13673 -0.52400
O 	O 	0.58870 0.19050 0.47007 -0.52500
O 	O 	0.87100 0.04880 0.25540 -0.35400
O 	O 	0.95120 0.82220 0.92207 -0.35500
O 	O 	0.17780 0.12900 0.58873 -0.35800
O 	O 	0.04880 0.87100 0.74460 -0.35400
O 	O 	0.82220 0.95120 0.07793 -0.35500
O 	O 	0.12900 0.17780 0.41127 -0.35800
O 	O 	0.91510 0.42090 0.39358 -0.47200
O 	O 	0.57910 0.49420 0.06025 -0.47200
O 	O 	0.50580 0.08490 0.72691 -0.47300
O 	O 	0.42090 0.91510 0.60642 -0.47200
O 	O 	0.49420 0.57910 0.93975 -0.47200
O 	O 	0.08490 0.50580 0.27309 -0.47300
O 	O 	0.83880 0.27320 0.44181 -0.50400
O 	O 	0.72680 0.56560 0.10848 -0.50300
O 	O 	0.43440 0.16120 0.77514 -0.50500
O 	O 	0.27320 0.83880 0.55819 -0.50400
O 	O 	0.56560 0.72680 0.89152 -0.50300
O 	O 	0.16120 0.43440 0.22486 -0.50500
O 	O 	0.35100 0.49250 0.07550 -0.52000
O 	O 	0.50750 0.85850 0.74217 -0.52000
O 	O 	0.14150 0.64900 0.40883 -0.51900
O 	O 	0.49250 0.35100 0.92450 -0.52000
O 	O 	0.85850 0.50750 0.25783 -0.52000
O 	O 	0.64900 0.14150 0.59117 -0.51900
O 	O 	0.21290 0.43960 0.12640 -0.53500
O 	O 	0.56040 0.77330 0.79307 -0.53500
O 	O 	0.22670 0.78710 0.45973 -0.53500
O 	O 	0.43960 0.21290 0.87360 -0.53500
O 	O 	0.77330 0.56040 0.20693 -0.53500
O 	O 	0.78710 0.22670 0.54027 -0.53500
O 	O 	0.94990 0.48460 0.95770 -0.35400
O 	O 	0.51540 0.46530 0.62437 -0.35900
O 	O 	0.53470 0.05010 0.29103 -0.35300
O 	O 	0.48460 0.94990 0.04230 -0.35400
O 	O 	0.46530 0.51540 0.37563 -0.35900
O 	O 	0.05010 0.53470 0.70897 -0.35300
O 	O 	0.66500 0.98950 0.86690 -0.52700
O 	O 	0.01050 0.67550 0.53357 -0.52800
O 	O 	0.32450 0.33500 0.20023 -0.53200
O 	O 	0.98950 0.66500 0.13310 -0.52700
O 	O 	0.67550 0.01050 0.46643 -0.52800
O 	O 	0.33500 0.32450 0.79977 -0.53200
O 	O 	0.65650 0.10050 0.81360 -0.54400
O 	O 	0.89950 0.55600 0.48027 -0.54400
O 	O 	0.44400 0.34350 0.14693 -0.54400
O 	O 	0.10050 0.65650 0.18640 -0.54400
O 	O 	0.55600 0.89950 0.51973 -0.54400
O 	O 	0.34350 0.44400 0.85307 -0.54400
