data_crystal

_cell_length_a 8.75860
_cell_length_b 10.15600
_cell_length_c 19.47600
_cell_angle_alpha 90.00000
_cell_angle_beta  90.00000
_cell_angle_gamma 100.22000

_symmetry_space_group_name_	'P 1'
_symmetry_space_group_name_H-M	'P 1'

loop_
_symmetry_equiv_pos_as_xyz
  x,y,z

loop_
_atom_site_label
_atom_site_type_symbol
_atom_site_fract_x
_atom_site_fract_y
_atom_site_fract_z
_atom_site_charge
Na	Na	0.89124 0.60987 0.46968 0.58600
Na	Na	0.10876 0.89013 0.96968 0.58600
Na	Na	0.10876 0.39013 0.53032 0.58600
Na	Na	0.89124 0.10987 0.03032 0.58600
Zn	Zn	0.63730 0.52495 0.60181 1.24800
Zn	Zn	0.36270 0.97505 0.10181 1.24600
Zn	Zn	0.36270 0.47505 0.39819 1.24800
Zn	Zn	0.63730 0.02495 0.89819 1.24600
H 	H 	0.75000 0.37100 0.53200 0.51200
H 	H 	0.63300 0.40200 0.49200 0.52500
H 	H 	0.91520 0.75690 0.74400 0.05500
H 	H 	0.08350 0.86280 0.82530 0.01800
H 	H 	0.43930 0.74200 0.72900 0.04600
H 	H 	0.27080 0.63580 0.64710 0.04300
H 	H 	0.37620 0.84770 0.57860 0.04300
H 	H 	0.72710 0.96540 0.44850 0.04500
H 	H 	0.25000 0.12900 0.03200 0.50900
H 	H 	0.36700 0.09800 0.99200 0.51800
H 	H 	0.08480 0.74310 0.24400 0.04700
H 	H 	0.91650 0.63720 0.32530 0.02100
H 	H 	0.56070 0.75800 0.22900 0.04600
H 	H 	0.72920 0.86420 0.14710 0.04300
H 	H 	0.62380 0.65230 0.07860 0.04300
H 	H 	0.27290 0.53460 0.94850 0.04400
H 	H 	0.25000 0.62900 0.46800 0.51200
H 	H 	0.36700 0.59800 0.50800 0.52500
H 	H 	0.08480 0.24310 0.25600 0.05500
H 	H 	0.91650 0.13720 0.17470 0.01800
H 	H 	0.56070 0.25800 0.27100 0.04600
H 	H 	0.72920 0.36420 0.35290 0.04300
H 	H 	0.62380 0.15230 0.42140 0.04300
H 	H 	0.27290 0.03460 0.55150 0.04500
H 	H 	0.75000 0.87100 0.96800 0.50900
H 	H 	0.63300 0.90200 0.00800 0.51800
H 	H 	0.91520 0.25690 0.75600 0.04700
H 	H 	0.08350 0.36280 0.67470 0.02100
H 	H 	0.43930 0.24200 0.77100 0.04600
H 	H 	0.27080 0.13580 0.85290 0.04300
H 	H 	0.37620 0.34770 0.92140 0.04300
H 	H 	0.72710 0.46540 0.05150 0.04400
C 	C 	0.96260 0.61130 0.63531 0.37200
C 	C 	0.07490 0.68330 0.68741 -0.07800
C 	C 	0.02030 0.75300 0.74115 -0.02900
C 	C 	0.12090 0.81600 0.78982 -0.00900
C 	C 	0.27840 0.81050 0.78663 -0.08200
C 	C 	0.33380 0.74390 0.73232 -0.01300
C 	C 	0.23290 0.68060 0.68321 -0.02600
C 	C 	0.38320 0.87870 0.84201 0.34000
C 	C 	0.63340 0.76800 0.53496 0.34400
C 	C 	0.56200 0.88670 0.51664 -0.08700
C 	C 	0.42650 0.90890 0.54680 -0.03100
C 	C 	0.63560 0.97900 0.46940 -0.02100
C 	C 	0.03740 0.88870 0.13531 0.36100
C 	C 	0.92510 0.81670 0.18741 -0.07500
C 	C 	0.97970 0.74700 0.24115 -0.01800
C 	C 	0.87910 0.68400 0.28982 -0.01500
C 	C 	0.72160 0.68950 0.28663 -0.08100
C 	C 	0.66620 0.75610 0.23232 -0.01300
C 	C 	0.76710 0.81940 0.18321 -0.02600
C 	C 	0.61680 0.62130 0.34201 0.33900
C 	C 	0.36660 0.73200 0.03496 0.34400
C 	C 	0.43800 0.61330 0.01664 -0.08800
C 	C 	0.57350 0.59110 0.04680 -0.03000
C 	C 	0.36440 0.52100 0.96940 -0.02000
C 	C 	0.03740 0.38870 0.36469 0.37200
C 	C 	0.92510 0.31670 0.31259 -0.07800
C 	C 	0.97970 0.24700 0.25885 -0.02900
C 	C 	0.87910 0.18400 0.21018 -0.00900
C 	C 	0.72160 0.18950 0.21337 -0.08200
C 	C 	0.66620 0.25610 0.26768 -0.01300
C 	C 	0.76710 0.31940 0.31679 -0.02600
C 	C 	0.61680 0.12130 0.15799 0.34000
C 	C 	0.36660 0.23200 0.46504 0.34400
C 	C 	0.43800 0.11330 0.48336 -0.08700
C 	C 	0.57350 0.09110 0.45320 -0.03100
C 	C 	0.36440 0.02100 0.53060 -0.02100
C 	C 	0.96260 0.11130 0.86469 0.36100
C 	C 	0.07490 0.18330 0.81259 -0.07500
C 	C 	0.02030 0.25300 0.75885 -0.01800
C 	C 	0.12090 0.31600 0.71018 -0.01500
C 	C 	0.27840 0.31050 0.71337 -0.08100
C 	C 	0.33380 0.24390 0.76768 -0.01300
C 	C 	0.23290 0.18060 0.81679 -0.02600
C 	C 	0.38320 0.37870 0.65799 0.33900
C 	C 	0.63340 0.26800 0.96504 0.34400
C 	C 	0.56200 0.38670 0.98336 -0.08800
C 	C 	0.42650 0.40890 0.95320 -0.03000
C 	C 	0.63560 0.47900 0.03060 -0.02000
O 	O 	0.01010 0.57000 0.58115 -0.42000
O 	O 	0.82120 0.59920 0.65318 -0.46300
O 	O 	0.52760 0.90850 0.82753 -0.44400
O 	O 	0.32910 0.90540 0.89728 -0.38600
O 	O 	0.77000 0.76740 0.52227 -0.36400
O 	O 	0.54210 0.67010 0.56490 -0.49200
O 	O 	0.69880 0.42470 0.52155 -1.22700
O 	O 	0.98990 0.93000 0.08115 -0.41400
O 	O 	0.17880 0.90080 0.15318 -0.46300
O 	O 	0.47240 0.59150 0.32753 -0.44700
O 	O 	0.67090 0.59460 0.39728 -0.38800
O 	O 	0.23000 0.73260 0.02227 -0.36600
O 	O 	0.45790 0.82990 0.06490 -0.49300
O 	O 	0.30120 0.07530 0.02155 -1.21500
O 	O 	0.98990 0.43000 0.41885 -0.42000
O 	O 	0.17880 0.40080 0.34682 -0.46300
O 	O 	0.47240 0.09150 0.17247 -0.44400
O 	O 	0.67090 0.09460 0.10272 -0.38600
O 	O 	0.23000 0.23260 0.47773 -0.36400
O 	O 	0.45790 0.32990 0.43510 -0.49200
O 	O 	0.30120 0.57530 0.47845 -1.22700
O 	O 	0.01010 0.07000 0.91885 -0.41400
O 	O 	0.82120 0.09920 0.84682 -0.46300
O 	O 	0.52760 0.40850 0.67247 -0.44700
O 	O 	0.32910 0.40540 0.60272 -0.38800
O 	O 	0.77000 0.26740 0.97773 -0.36600
O 	O 	0.54210 0.17010 0.93510 -0.49300
O 	O 	0.69880 0.92470 0.97845 -1.21500
