data_crystal

_cell_length_a 10.47960
_cell_length_b 17.76800
_cell_length_c 17.76800
_cell_angle_alpha 120.00000
_cell_angle_beta  90.00000
_cell_angle_gamma 90.00000

_symmetry_space_group_name_	'P 1'
_symmetry_space_group_name_H-M	'P 1'

loop_
_symmetry_equiv_pos_as_xyz
  x,y,z

loop_
_atom_site_label
_atom_site_type_symbol
_atom_site_fract_x
_atom_site_fract_y
_atom_site_fract_z
_atom_site_charge
Zn	Zn	0.73715 0.47221 0.54293 1.20300
Zn	Zn	0.40382 0.07072 0.52779 1.20300
Zn	Zn	0.07048 0.45707 0.92928 1.20100
Zn	Zn	0.23715 0.52779 0.45707 1.20300
Zn	Zn	0.90382 0.92928 0.47221 1.20500
Zn	Zn	0.57048 0.54293 0.07072 1.20400
H 	H 	0.82920 0.55490 0.47530 0.07300
H 	H 	0.62330 0.62480 0.47090 0.18000
H 	H 	0.59820 0.52080 0.32500 -0.24300
H 	H 	0.75720 0.40850 0.26050 0.48800
H 	H 	0.64760 0.39330 0.31160 0.49000
H 	H 	0.78210 0.42500 0.35460 0.46200
H 	H 	0.85790 0.56820 0.35150 0.45600
H 	H 	0.75050 0.63570 0.36640 0.45300
H 	H 	0.77300 0.55560 0.27340 0.46700
H 	H 	0.70180 0.89730 0.57320 -0.03800
H 	H 	0.02170 0.77680 0.47240 -0.02600
H 	H 	0.64580 0.79380 0.61210 0.08800
H 	H 	0.98110 0.67780 0.51630 0.12300
H 	H 	0.69490 0.66940 0.62020 0.07800
H 	H 	0.84010 0.64970 0.62240 0.08000
H 	H 	0.49587 0.92040 0.44510 0.07100
H 	H 	0.28997 0.84610 0.37520 0.18000
H 	H 	0.26487 0.80420 0.47920 -0.24100
H 	H 	0.42387 0.85200 0.59150 0.48300
H 	H 	0.31427 0.91830 0.60670 0.48600
H 	H 	0.44877 0.92960 0.57500 0.45700
H 	H 	0.52457 0.78330 0.43180 0.45100
H 	H 	0.41717 0.73070 0.36430 0.45000
H 	H 	0.43967 0.71780 0.44440 0.46300
H 	H 	0.36847 0.67590 0.10270 -0.03600
H 	H 	0.68837 0.69560 0.22320 -0.01100
H 	H 	0.31247 0.81830 0.20620 0.08500
H 	H 	0.64777 0.83850 0.32220 0.11300
H 	H 	0.36157 0.95080 0.33060 0.07600
H 	H 	0.50677 0.97270 0.35030 0.07600
H 	H 	0.16253 0.52470 0.07960 0.07200
H 	H 	0.95663 0.52910 0.15390 0.17600
H 	H 	0.93153 0.67500 0.19580 -0.22700
H 	H 	0.09053 0.73950 0.14800 0.48100
H 	H 	0.98093 0.68840 0.08170 0.49000
H 	H 	0.11543 0.64540 0.07040 0.45500
H 	H 	0.19123 0.64850 0.21670 0.44100
H 	H 	0.08383 0.63360 0.26930 0.43700
H 	H 	0.10633 0.72660 0.28220 0.45100
H 	H 	0.03513 0.42680 0.32410 -0.04400
H 	H 	0.35503 0.52760 0.30440 -0.01200
H 	H 	0.97913 0.38790 0.18170 0.10100
H 	H 	0.31443 0.48370 0.16150 0.11600
H 	H 	0.02823 0.37980 0.04920 0.07400
H 	H 	0.17343 0.37760 0.02730 0.07700
H 	H 	0.32920 0.44510 0.52470 0.07200
H 	H 	0.12330 0.37520 0.52910 0.17700
H 	H 	0.09820 0.47920 0.67500 -0.24200
H 	H 	0.25720 0.59150 0.73950 0.48100
H 	H 	0.14760 0.60670 0.68840 0.48200
H 	H 	0.28210 0.57500 0.64540 0.45400
H 	H 	0.35790 0.43180 0.64850 0.44900
H 	H 	0.25050 0.36430 0.63360 0.44800
H 	H 	0.27300 0.44440 0.72660 0.46100
H 	H 	0.20180 0.10270 0.42680 -0.03800
H 	H 	0.52170 0.22320 0.52760 -0.01100
H 	H 	0.14580 0.20620 0.38790 0.08300
H 	H 	0.48110 0.32220 0.48370 0.11300
H 	H 	0.19490 0.33060 0.37980 0.07500
H 	H 	0.34010 0.35030 0.37760 0.07600
H 	H 	0.99587 0.07960 0.55490 0.07800
H 	H 	0.78997 0.15390 0.62480 0.17500
H 	H 	0.76487 0.19580 0.52080 -0.23100
H 	H 	0.92387 0.14800 0.40850 0.47700
H 	H 	0.81427 0.08170 0.39330 0.47800
H 	H 	0.94877 0.07040 0.42500 0.45100
H 	H 	0.02457 0.21670 0.56820 0.42000
H 	H 	0.91717 0.26930 0.63570 0.43000
H 	H 	0.93967 0.28220 0.55560 0.44400
H 	H 	0.86847 0.32410 0.89730 -0.04200
H 	H 	0.18837 0.30440 0.77680 -0.01500
H 	H 	0.81247 0.18170 0.79380 0.09100
H 	H 	0.14777 0.16150 0.67780 0.12100
H 	H 	0.86157 0.04920 0.66940 0.07300
H 	H 	0.00677 0.02730 0.64970 0.06100
H 	H 	0.66253 0.47530 0.92040 0.07200
H 	H 	0.45663 0.47090 0.84610 0.18000
H 	H 	0.43153 0.32500 0.80420 -0.24100
H 	H 	0.59053 0.26050 0.85200 0.48400
H 	H 	0.48093 0.31160 0.91830 0.48600
H 	H 	0.61543 0.35460 0.92960 0.45800
H 	H 	0.69123 0.35150 0.78330 0.45200
H 	H 	0.58383 0.36640 0.73070 0.45000
H 	H 	0.60633 0.27340 0.71780 0.46300
H 	H 	0.53513 0.57320 0.67590 -0.03600
H 	H 	0.85503 0.47240 0.69560 -0.00800
H 	H 	0.47913 0.61210 0.81830 0.08500
H 	H 	0.81443 0.51630 0.83850 0.11600
H 	H 	0.52823 0.62020 0.95080 0.07600
H 	H 	0.67343 0.62240 0.97270 0.07700
C 	C 	0.53100 0.52100 0.46780 0.46500
C 	C 	0.64710 0.56440 0.45110 -0.52000
C 	C 	0.67800 0.52200 0.35440 0.95900
C 	C 	0.72000 0.42870 0.31680 -1.50900
C 	C 	0.77390 0.57540 0.33460 -1.45500
C 	C 	0.75680 0.85120 0.55990 0.10100
C 	C 	0.94620 0.78080 0.50170 0.12800
C 	C 	0.72330 0.78970 0.58470 -0.23700
C 	C 	0.80680 0.72380 0.56770 0.18500
C 	C 	0.92140 0.72070 0.52670 -0.24300
C 	C 	0.77340 0.65380 0.58680 -0.22300
C 	C 	0.19767 0.94680 0.47900 0.46600
C 	C 	0.31377 0.88670 0.43560 -0.51800
C 	C 	0.34467 0.83240 0.47800 0.95100
C 	C 	0.38667 0.88810 0.57130 -1.49800
C 	C 	0.44057 0.75920 0.42460 -1.44400
C 	C 	0.42347 0.70870 0.14880 0.09600
C 	C 	0.61287 0.72090 0.21920 0.10200
C 	C 	0.38997 0.79500 0.21030 -0.23000
C 	C 	0.47347 0.84390 0.27620 0.17500
C 	C 	0.58807 0.80600 0.27930 -0.22700
C 	C 	0.44007 0.93300 0.34620 -0.21600
C 	C 	0.86433 0.53220 0.05320 0.45600
C 	C 	0.98043 0.54890 0.11330 -0.49400
C 	C 	0.01133 0.64560 0.16760 0.91700
C 	C 	0.05333 0.68320 0.11190 -1.49500
C 	C 	0.10723 0.66540 0.24080 -1.41100
C 	C 	0.09013 0.44010 0.29130 0.10800
C 	C 	0.27953 0.49830 0.27910 0.10600
C 	C 	0.05663 0.41530 0.20500 -0.25800
C 	C 	0.14013 0.43230 0.15610 0.18600
C 	C 	0.25473 0.47330 0.19400 -0.23500
C 	C 	0.10673 0.41320 0.06700 -0.22200
C 	C 	0.03100 0.47900 0.53220 0.44900
C 	C 	0.14710 0.43560 0.54890 -0.51200
C 	C 	0.17800 0.47800 0.64560 0.94500
C 	C 	0.22000 0.57130 0.68320 -1.49100
C 	C 	0.27390 0.42460 0.66540 -1.43900
C 	C 	0.25680 0.14880 0.44010 0.09600
C 	C 	0.44620 0.21920 0.49830 0.10200
C 	C 	0.22330 0.21030 0.41530 -0.23000
C 	C 	0.30680 0.27620 0.43230 0.17400
C 	C 	0.42140 0.27930 0.47330 -0.22700
C 	C 	0.27340 0.34620 0.41320 -0.21500
C 	C 	0.69767 0.05320 0.52100 0.46100
C 	C 	0.81377 0.11330 0.56440 -0.50300
C 	C 	0.84467 0.16760 0.52200 0.91700
C 	C 	0.88667 0.11190 0.42870 -1.46800
C 	C 	0.94057 0.24080 0.57540 -1.36900
C 	C 	0.92347 0.29130 0.85120 0.12100
C 	C 	0.11287 0.27910 0.78080 0.11300
C 	C 	0.88997 0.20500 0.78970 -0.24500
C 	C 	0.97347 0.15610 0.72380 0.19500
C 	C 	0.08807 0.19400 0.72070 -0.25400
C 	C 	0.94007 0.06700 0.65380 -0.19900
C 	C 	0.36433 0.46780 0.94680 0.46300
C 	C 	0.48043 0.45110 0.88670 -0.51700
C 	C 	0.51133 0.35440 0.83240 0.95200
C 	C 	0.55333 0.31680 0.88810 -1.50000
C 	C 	0.60723 0.33460 0.75920 -1.44600
C 	C 	0.59013 0.55990 0.70870 0.09700
C 	C 	0.77953 0.50170 0.72090 0.10300
C 	C 	0.55663 0.58470 0.79500 -0.23100
C 	C 	0.64013 0.56770 0.84390 0.17600
C 	C 	0.75473 0.52670 0.80600 -0.22700
C 	C 	0.60673 0.58680 0.93300 -0.21700
Br	Br	0.74839 0.32032 0.45183 -0.53400
Br	Br	0.41506 0.13151 0.67968 -0.53800
Br	Br	0.08172 0.54817 0.86849 -0.54600
Br	Br	0.24839 0.67968 0.54817 -0.54000
Br	Br	0.91506 0.86849 0.32032 -0.53100
Br	Br	0.58172 0.45183 0.13151 -0.53700
N 	N 	0.75650 0.56690 0.50740 -0.18500
N 	N 	0.86390 0.84520 0.51850 -0.27800
N 	N 	0.42317 0.94050 0.43310 -0.18600
N 	N 	0.53057 0.67330 0.15480 -0.27400
N 	N 	0.08983 0.49260 0.05950 -0.19100
N 	N 	0.19723 0.48150 0.32670 -0.27700
N 	N 	0.25650 0.43310 0.49260 -0.18700
N 	N 	0.36390 0.15480 0.48150 -0.27400
N 	N 	0.92317 0.05950 0.56690 -0.18900
N 	N 	0.03057 0.32670 0.84520 -0.28700
N 	N 	0.58983 0.50740 0.94050 -0.18600
N 	N 	0.69723 0.51850 0.67330 -0.27400
O 	O 	0.54110 0.48830 0.51560 -0.48700
O 	O 	0.43230 0.52070 0.42800 -0.47800
O 	O 	0.20777 0.02730 0.51170 -0.49000
O 	O 	0.09897 0.90730 0.47930 -0.48200
O 	O 	0.87443 0.48440 0.97270 -0.47900
O 	O 	0.76563 0.57200 0.09270 -0.47600
O 	O 	0.04110 0.51170 0.48440 -0.48700
O 	O 	0.93230 0.47930 0.57200 -0.46600
O 	O 	0.70777 0.97270 0.48830 -0.48600
O 	O 	0.59897 0.09270 0.52070 -0.47700
O 	O 	0.37443 0.51560 0.02730 -0.48600
O 	O 	0.26563 0.42800 0.90730 -0.47800
