data_crystal

_cell_length_a 10.51040
_cell_length_b 17.76610
_cell_length_c 17.76610
_cell_angle_alpha 120.00000
_cell_angle_beta  90.00000
_cell_angle_gamma 90.00000

_symmetry_space_group_name_	'P 1'
_symmetry_space_group_name_H-M	'P 1'

loop_
_symmetry_equiv_pos_as_xyz
  x,y,z

loop_
_atom_site_label
_atom_site_type_symbol
_atom_site_fract_x
_atom_site_fract_y
_atom_site_fract_z
_atom_site_charge
Zn	Zn	0.63162 0.45626 0.92679 1.21500
Zn	Zn	0.29829 0.47053 0.54374 1.21400
Zn	Zn	0.96495 0.07321 0.52947 1.21700
Zn	Zn	0.13162 0.54374 0.07321 1.21200
Zn	Zn	0.79829 0.52947 0.45626 1.21400
Zn	Zn	0.46495 0.92679 0.47053 1.21300
H 	H 	0.72300 0.52530 0.07920 0.06900
H 	H 	0.91930 0.52080 0.30230 -0.00500
H 	H 	0.59210 0.43320 0.32530 -0.04400
H 	H 	0.53700 0.39490 0.18610 0.08600
H 	H 	0.51660 0.53040 0.15180 0.19300
H 	H 	0.49430 0.67520 0.19340 -0.26700
H 	H 	0.69130 0.65260 0.07850 0.51100
H 	H 	0.63200 0.74270 0.14490 0.53500
H 	H 	0.54930 0.67290 0.06830 0.53300
H 	H 	0.73110 0.37750 0.02380 0.07700
H 	H 	0.58620 0.38090 0.04670 0.07600
H 	H 	0.64020 0.63530 0.27000 0.47700
H 	H 	0.67030 0.72620 0.27980 0.49300
H 	H 	0.75100 0.64470 0.21630 0.47800
H 	H 	0.87650 0.48140 0.16110 0.12000
H 	H 	0.38967 0.55390 0.47470 0.06900
H 	H 	0.58597 0.78150 0.47920 -0.00600
H 	H 	0.25877 0.89210 0.56680 -0.04500
H 	H 	0.20367 0.79120 0.60510 0.08300
H 	H 	0.18327 0.62140 0.46960 0.18700
H 	H 	0.16097 0.51820 0.32480 -0.26700
H 	H 	0.35797 0.42590 0.34740 0.50600
H 	H 	0.29867 0.40220 0.25730 0.53000
H 	H 	0.21597 0.39540 0.32710 0.52700
H 	H 	0.39777 0.64630 0.62250 0.07500
H 	H 	0.25287 0.66580 0.61910 0.07400
H 	H 	0.30687 0.63470 0.36470 0.47300
H 	H 	0.33697 0.55360 0.27380 0.48900
H 	H 	0.41767 0.57160 0.35530 0.47500
H 	H 	0.54317 0.67970 0.51860 0.11600
H 	H 	0.05633 0.92080 0.44610 0.05800
H 	H 	0.25263 0.69770 0.21850 -0.00100
H 	H 	0.92543 0.67470 0.10790 -0.04000
H 	H 	0.87033 0.81390 0.20880 0.07300
H 	H 	0.84993 0.84820 0.37860 0.19800
H 	H 	0.82763 0.80660 0.48180 -0.28100
H 	H 	0.02463 0.92150 0.57410 0.50100
H 	H 	0.96533 0.85510 0.59780 0.54100
H 	H 	0.88263 0.93170 0.60460 0.53500
H 	H 	0.06443 0.97620 0.35370 0.04800
H 	H 	0.91953 0.95330 0.33420 0.05900
H 	H 	0.97353 0.73000 0.36530 0.52200
H 	H 	0.00363 0.72020 0.44640 0.52300
H 	H 	0.08433 0.78370 0.42840 0.51100
H 	H 	0.20983 0.83890 0.32030 0.10500
H 	H 	0.22300 0.47470 0.92080 0.07100
H 	H 	0.41930 0.47920 0.69770 -0.00600
H 	H 	0.09210 0.56680 0.67470 -0.04800
H 	H 	0.03700 0.60510 0.81390 0.08100
H 	H 	0.01660 0.46960 0.84820 0.18500
H 	H 	0.99430 0.32480 0.80660 -0.24000
H 	H 	0.19130 0.34740 0.92150 0.49000
H 	H 	0.13200 0.25730 0.85510 0.51200
H 	H 	0.04930 0.32710 0.93170 0.50800
H 	H 	0.23110 0.62250 0.97620 0.07400
H 	H 	0.08620 0.61910 0.95330 0.07100
H 	H 	0.14020 0.36470 0.73000 0.45700
H 	H 	0.17030 0.27380 0.72020 0.47200
H 	H 	0.25100 0.35530 0.78370 0.46000
H 	H 	0.37650 0.51860 0.83890 0.11600
H 	H 	0.88967 0.44610 0.52530 0.07200
H 	H 	0.08597 0.21850 0.52080 0.01600
H 	H 	0.75877 0.10790 0.43320 -0.03800
H 	H 	0.70367 0.20880 0.39490 0.07700
H 	H 	0.68327 0.37860 0.53040 0.19400
H 	H 	0.66097 0.48180 0.67520 -0.27200
H 	H 	0.85797 0.57410 0.65260 0.52000
H 	H 	0.79867 0.59780 0.74270 0.54400
H 	H 	0.71597 0.60460 0.67290 0.54000
H 	H 	0.89777 0.35370 0.37750 0.07200
H 	H 	0.75287 0.33420 0.38090 0.07000
H 	H 	0.80687 0.36530 0.63530 0.48500
H 	H 	0.83697 0.44640 0.72620 0.50300
H 	H 	0.91767 0.42840 0.64470 0.48900
H 	H 	0.04317 0.32030 0.48140 0.07800
H 	H 	0.55633 0.07920 0.55390 0.06800
H 	H 	0.75263 0.30230 0.78150 -0.00600
H 	H 	0.42543 0.32530 0.89210 -0.04300
H 	H 	0.37033 0.18610 0.79120 0.08600
H 	H 	0.34993 0.15180 0.62140 0.19300
H 	H 	0.32763 0.19340 0.51820 -0.26800
H 	H 	0.52463 0.07850 0.42590 0.51100
H 	H 	0.46533 0.14490 0.40220 0.53500
H 	H 	0.38263 0.06830 0.39540 0.53300
H 	H 	0.56443 0.02380 0.64630 0.07500
H 	H 	0.41953 0.04670 0.66580 0.07500
H 	H 	0.47353 0.27000 0.63470 0.47800
H 	H 	0.50363 0.27980 0.55360 0.49300
H 	H 	0.58433 0.21630 0.57160 0.47800
H 	H 	0.70983 0.16110 0.67970 0.11700
C 	C 	0.84170 0.49490 0.27800 0.10600
C 	C 	0.64900 0.44390 0.29170 0.11100
C 	C 	0.61590 0.42010 0.20780 -0.23400
C 	C 	0.54090 0.54990 0.11110 -0.56400
C 	C 	0.42490 0.53330 0.05160 0.48700
C 	C 	0.57370 0.64530 0.16550 1.04800
C 	C 	0.61530 0.68170 0.10920 -1.65600
C 	C 	0.70000 0.43350 0.15490 0.16700
C 	C 	0.66520 0.41350 0.06410 -0.21400
C 	C 	0.66770 0.66470 0.23990 -1.53800
C 	C 	0.81580 0.47160 0.19330 -0.22600
C 	C 	0.50837 0.78310 0.50510 0.10400
C 	C 	0.31567 0.84780 0.55610 0.10800
C 	C 	0.28257 0.78770 0.57990 -0.23200
C 	C 	0.20757 0.56120 0.45010 -0.55600
C 	C 	0.09157 0.51830 0.46670 0.46800
C 	C 	0.24037 0.52020 0.35470 1.03800
C 	C 	0.28197 0.42750 0.31830 -1.64300
C 	C 	0.36667 0.72140 0.56650 0.16400
C 	C 	0.33187 0.65060 0.58650 -0.21100
C 	C 	0.33437 0.57520 0.33530 -1.52700
C 	C 	0.48247 0.72170 0.52840 -0.22400
C 	C 	0.17503 0.72200 0.21690 0.08500
C 	C 	0.98233 0.70830 0.15220 0.10500
C 	C 	0.94923 0.79220 0.21230 -0.19200
C 	C 	0.87423 0.88890 0.43880 -0.58100
C 	C 	0.75823 0.94840 0.48170 0.49300
C 	C 	0.90703 0.83450 0.47980 1.09900
C 	C 	0.94863 0.89080 0.57250 -1.65800
C 	C 	0.03333 0.84510 0.27860 0.10900
C 	C 	0.99853 0.93590 0.34940 -0.14600
C 	C 	0.00103 0.76010 0.42480 -1.65700
C 	C 	0.14913 0.80670 0.27830 -0.19700
C 	C 	0.34170 0.50510 0.72200 0.10400
C 	C 	0.14900 0.55610 0.70830 0.10800
C 	C 	0.11590 0.57990 0.79220 -0.23300
C 	C 	0.04090 0.45010 0.88890 -0.55300
C 	C 	0.92490 0.46670 0.94840 0.49400
C 	C 	0.07370 0.35470 0.83450 0.98800
C 	C 	0.11530 0.31830 0.89080 -1.58800
C 	C 	0.20000 0.56650 0.84510 0.16400
C 	C 	0.16520 0.58650 0.93590 -0.21000
C 	C 	0.16770 0.33530 0.76010 -1.47700
C 	C 	0.31580 0.52840 0.80670 -0.22400
C 	C 	0.00837 0.21690 0.49490 0.03500
C 	C 	0.81567 0.15220 0.44390 0.09200
C 	C 	0.78257 0.21230 0.42010 -0.20500
C 	C 	0.70757 0.43880 0.54990 -0.57000
C 	C 	0.59157 0.48170 0.53330 0.49000
C 	C 	0.74037 0.47980 0.64530 1.06400
C 	C 	0.78197 0.57250 0.68170 -1.67800
C 	C 	0.86667 0.27860 0.43350 0.12900
C 	C 	0.83187 0.34940 0.41350 -0.19100
C 	C 	0.83437 0.42480 0.66470 -1.56100
C 	C 	0.98247 0.27830 0.47160 -0.14200
C 	C 	0.67503 0.27800 0.78310 0.10500
C 	C 	0.48233 0.29170 0.84780 0.11000
C 	C 	0.44923 0.20780 0.78770 -0.23300
C 	C 	0.37423 0.11110 0.56120 -0.56600
C 	C 	0.25823 0.05160 0.51830 0.48900
C 	C 	0.40703 0.16550 0.52020 1.05000
C 	C 	0.44863 0.10920 0.42750 -1.65700
C 	C 	0.53333 0.15490 0.72140 0.16600
C 	C 	0.49853 0.06410 0.65060 -0.21300
C 	C 	0.50103 0.23990 0.57520 -1.53900
C 	C 	0.64913 0.19330 0.72170 -0.22500
N 	N 	0.75810 0.48130 0.32600 -0.27600
N 	N 	0.65030 0.49360 0.05880 -0.17200
N 	N 	0.42477 0.84470 0.51870 -0.27600
N 	N 	0.31697 0.56520 0.50640 -0.17300
N 	N 	0.09143 0.67400 0.15530 -0.27900
N 	N 	0.98363 0.94120 0.43480 -0.16700
N 	N 	0.25810 0.51870 0.67400 -0.27600
N 	N 	0.15030 0.50640 0.94120 -0.17500
N 	N 	0.92477 0.15530 0.48130 -0.25500
N 	N 	0.81697 0.43480 0.49360 -0.17400
N 	N 	0.59143 0.32600 0.84470 -0.27600
N 	N 	0.48363 0.05880 0.56520 -0.17200
Cl	Cl	0.63980 0.53997 0.86800 -0.60500
Cl	Cl	0.30647 0.32803 0.46003 -0.60700
Cl	Cl	0.97313 0.13200 0.67197 -0.59600
Cl	Cl	0.13980 0.46003 0.13200 -0.61300
Cl	Cl	0.80647 0.67197 0.53997 -0.60300
Cl	Cl	0.47313 0.86800 0.32803 -0.60600
O 	O 	0.32740 0.57490 0.09010 -0.47800
O 	O 	0.43490 0.48320 0.97230 -0.48800
O 	O 	0.99407 0.51520 0.42510 -0.46300
O 	O 	0.10157 0.48910 0.51680 -0.48800
O 	O 	0.66073 0.90990 0.48480 -0.48000
O 	O 	0.76823 0.02770 0.51090 -0.49100
O 	O 	0.82740 0.42510 0.90990 -0.47700
O 	O 	0.93490 0.51680 0.02770 -0.48400
O 	O 	0.49407 0.48480 0.57490 -0.47900
O 	O 	0.60157 0.51090 0.48320 -0.48900
O 	O 	0.16073 0.09010 0.51520 -0.48300
O 	O 	0.26823 0.97230 0.48910 -0.49100
