data_crystal

_cell_length_a 9.90600
_cell_length_b 17.37900
_cell_length_c 22.04300
_cell_angle_alpha 90.00000
_cell_angle_beta  90.00000
_cell_angle_gamma 90.00000

_symmetry_space_group_name_	'P 1'
_symmetry_space_group_name_H-M	'P 1'

loop_
_symmetry_equiv_pos_as_xyz
  x,y,z

loop_
_atom_site_label
_atom_site_type_symbol
_atom_site_fract_x
_atom_site_fract_y
_atom_site_fract_z
_atom_site_charge
In	In	0.75000 0.58469 0.32818 1.99800
In	In	0.25000 0.91531 0.82818 1.99700
In	In	0.25000 0.41531 0.67182 1.99900
In	In	0.75000 0.08469 0.17182 1.99800
H 	H 	0.54630 0.27470 0.55060 0.09200
H 	H 	0.83080 0.17450 0.49720 0.11700
H 	H 	0.45370 0.22530 0.05060 0.09100
H 	H 	0.16920 0.32550 0.99720 0.11700
H 	H 	0.04630 0.72530 0.44940 0.09100
H 	H 	0.33080 0.82550 0.50280 0.11700
H 	H 	0.95370 0.77470 0.94940 0.09200
H 	H 	0.66920 0.67450 0.00280 0.11700
H 	H 	0.45370 0.72530 0.44940 0.09200
H 	H 	0.16920 0.82550 0.50280 0.11700
H 	H 	0.54630 0.77470 0.94940 0.09100
H 	H 	0.83080 0.67450 0.00280 0.11700
H 	H 	0.95370 0.27470 0.55060 0.09100
H 	H 	0.66920 0.17450 0.49720 0.11700
H 	H 	0.04630 0.22530 0.05060 0.09200
H 	H 	0.33080 0.32550 0.99720 0.11700
H 	H 	0.75000 0.35400 0.45630 0.10200
H 	H 	0.75000 0.14120 0.38470 0.09400
H 	H 	0.75000 0.32340 0.27320 0.09100
H 	H 	0.75000 0.41800 0.67100 0.06800
H 	H 	0.25000 0.14600 0.95630 0.10200
H 	H 	0.25000 0.35880 0.88470 0.09400
H 	H 	0.25000 0.17660 0.77320 0.09100
H 	H 	0.25000 0.08200 0.17100 0.06800
H 	H 	0.25000 0.64600 0.54370 0.10200
H 	H 	0.25000 0.85880 0.61530 0.09400
H 	H 	0.25000 0.67660 0.72680 0.09100
H 	H 	0.25000 0.58200 0.32900 0.06800
H 	H 	0.75000 0.85400 0.04370 0.10200
H 	H 	0.75000 0.64120 0.11530 0.09400
H 	H 	0.75000 0.82340 0.22680 0.09100
H 	H 	0.75000 0.91800 0.82900 0.06800
C 	C 	0.62730 0.35090 0.61280 -0.03300
C 	C 	0.49710 0.37840 0.63370 0.29700
C 	C 	0.62860 0.29420 0.56650 -0.09800
C 	C 	0.37270 0.14910 0.11280 -0.03400
C 	C 	0.50290 0.12160 0.13370 0.29700
C 	C 	0.37140 0.20580 0.06650 -0.09700
C 	C 	0.12730 0.64910 0.38720 -0.03400
C 	C 	0.99710 0.62160 0.36630 0.29800
C 	C 	0.12860 0.70580 0.43350 -0.09700
C 	C 	0.87270 0.85090 0.88720 -0.03300
C 	C 	0.00290 0.87840 0.86630 0.29600
C 	C 	0.87140 0.79420 0.93350 -0.09800
C 	C 	0.37270 0.64910 0.38720 -0.03300
C 	C 	0.50290 0.62160 0.36630 0.29700
C 	C 	0.37140 0.70580 0.43350 -0.09800
C 	C 	0.62730 0.85090 0.88720 -0.03400
C 	C 	0.49710 0.87840 0.86630 0.29700
C 	C 	0.62860 0.79420 0.93350 -0.09700
C 	C 	0.87270 0.35090 0.61280 -0.03400
C 	C 	0.00290 0.37840 0.63370 0.29800
C 	C 	0.87140 0.29420 0.56650 -0.09700
C 	C 	0.12730 0.14910 0.11280 -0.03300
C 	C 	0.99710 0.12160 0.13370 0.29600
C 	C 	0.12860 0.20580 0.06650 -0.09800
C 	C 	0.75000 0.35360 0.36320 0.00000
C 	C 	0.75000 0.24390 0.43090 0.14000
C 	C 	0.75000 0.22730 0.32140 0.00100
C 	C 	0.75000 0.43820 0.35380 0.28600
C 	C 	0.75000 0.37690 0.63480 0.00500
C 	C 	0.75000 0.32090 0.42200 -0.12000
C 	C 	0.75000 0.17350 0.26750 0.29000
C 	C 	0.75000 0.19550 0.37970 -0.11800
C 	C 	0.75000 0.30310 0.31320 -0.04500
C 	C 	0.75000 0.26790 0.54490 0.12000
C 	C 	0.75000 0.20760 0.49310 -0.27900
C 	C 	0.25000 0.14640 0.86320 0.00100
C 	C 	0.25000 0.25610 0.93090 0.14000
C 	C 	0.25000 0.27270 0.82140 0.00100
C 	C 	0.25000 0.06180 0.85380 0.28600
C 	C 	0.25000 0.12310 0.13480 0.00500
C 	C 	0.25000 0.17910 0.92200 -0.12000
C 	C 	0.25000 0.32650 0.76750 0.29000
C 	C 	0.25000 0.30450 0.87970 -0.11800
C 	C 	0.25000 0.19690 0.81320 -0.04600
C 	C 	0.25000 0.23210 0.04490 0.11900
C 	C 	0.25000 0.29240 0.99310 -0.27700
C 	C 	0.25000 0.64640 0.63680 0.00000
C 	C 	0.25000 0.75610 0.56910 0.14000
C 	C 	0.25000 0.77270 0.67860 0.00100
C 	C 	0.25000 0.56180 0.64620 0.28600
C 	C 	0.25000 0.62310 0.36520 0.00500
C 	C 	0.25000 0.67910 0.57800 -0.12000
C 	C 	0.25000 0.82650 0.73250 0.29000
C 	C 	0.25000 0.80450 0.62030 -0.11800
C 	C 	0.25000 0.69690 0.68680 -0.04500
C 	C 	0.25000 0.73210 0.45510 0.12000
C 	C 	0.25000 0.79240 0.50690 -0.27900
C 	C 	0.75000 0.85360 0.13680 0.00100
C 	C 	0.75000 0.74390 0.06910 0.14000
C 	C 	0.75000 0.72730 0.17860 0.00100
C 	C 	0.75000 0.93820 0.14620 0.28600
C 	C 	0.75000 0.87690 0.86520 0.00500
C 	C 	0.75000 0.82090 0.07800 -0.12000
C 	C 	0.75000 0.67350 0.23250 0.29000
C 	C 	0.75000 0.69550 0.12030 -0.11800
C 	C 	0.75000 0.80310 0.18680 -0.04600
C 	C 	0.75000 0.76790 0.95510 0.11900
C 	C 	0.75000 0.70760 0.00690 -0.27700
O 	O 	0.48770 0.41900 0.68047 -0.40600
O 	O 	0.38930 0.36060 0.60528 -0.42800
O 	O 	0.51230 0.08100 0.18047 -0.40700
O 	O 	0.61070 0.13940 0.10528 -0.42900
O 	O 	0.98770 0.58100 0.31953 -0.40600
O 	O 	0.88930 0.63940 0.39472 -0.42800
O 	O 	0.01230 0.91900 0.81953 -0.40700
O 	O 	0.11070 0.86060 0.89472 -0.42900
O 	O 	0.51230 0.58100 0.31953 -0.40600
O 	O 	0.61070 0.63940 0.39472 -0.42800
O 	O 	0.48770 0.91900 0.81953 -0.40700
O 	O 	0.38930 0.86060 0.89472 -0.42900
O 	O 	0.01230 0.41900 0.68047 -0.40600
O 	O 	0.11070 0.36060 0.60528 -0.42800
O 	O 	0.98770 0.08100 0.18047 -0.40700
O 	O 	0.88930 0.13940 0.10528 -0.42900
O 	O 	0.75000 0.10160 0.27400 -0.42500
O 	O 	0.75000 0.48230 0.39830 -0.40200
O 	O 	0.75000 0.46390 0.30030 -0.45100
O 	O 	0.75000 0.20150 0.21530 -0.43600
O 	O 	0.25000 0.39840 0.77400 -0.42400
O 	O 	0.25000 0.01770 0.89830 -0.40100
O 	O 	0.25000 0.03610 0.80030 -0.45000
O 	O 	0.25000 0.29850 0.71530 -0.43600
O 	O 	0.25000 0.89840 0.72600 -0.42500
O 	O 	0.25000 0.51770 0.60170 -0.40200
O 	O 	0.25000 0.53610 0.69970 -0.45100
O 	O 	0.25000 0.79850 0.78470 -0.43600
O 	O 	0.75000 0.60160 0.22600 -0.42400
O 	O 	0.75000 0.98230 0.10170 -0.40100
O 	O 	0.75000 0.96390 0.19970 -0.45000
O 	O 	0.75000 0.70150 0.28470 -0.43600
