data_crystal

_cell_length_a 5.28540
_cell_length_b 18.89390
_cell_length_c 18.89390
_cell_angle_alpha 88.87900
_cell_angle_beta  81.95960
_cell_angle_gamma 81.95970

_symmetry_space_group_name_	'P 1'
_symmetry_space_group_name_H-M	'P 1'

loop_
_symmetry_equiv_pos_as_xyz
  x,y,z

loop_
_atom_site_label
_atom_site_type_symbol
_atom_site_fract_x
_atom_site_fract_y
_atom_site_fract_z
_atom_site_charge
Zn	Zn	0.63067 0.05895 0.51135 1.22100
Zn	Zn	0.20097 0.94105 0.48865 1.21900
Zn	Zn	0.85797 0.51136 0.94105 1.22100
Zn	Zn	0.31039 0.48864 0.05895 1.22200
H 	H 	0.74810 0.18770 0.59790 0.00200
H 	H 	0.20350 0.00810 0.63350 0.04100
H 	H 	0.85620 0.95250 0.70810 0.05600
H 	H 	0.59940 0.94320 0.81460 0.03700
H 	H 	0.63310 0.01490 0.91110 0.03000
H 	H 	0.90530 0.09840 0.89980 0.06200
H 	H 	0.22620 0.16140 0.82600 0.08200
H 	H 	0.63920 0.30110 0.63950 0.13000
H 	H 	0.68470 0.40920 0.69180 0.00100
H 	H 	0.67910 0.31030 0.88170 -0.02100
H 	H 	0.63330 0.20330 0.82690 0.11800
H 	H 	0.53370 0.81230 0.40210 0.00100
H 	H 	0.84510 0.99190 0.36650 0.03900
H 	H 	0.51680 0.04750 0.29190 0.05400
H 	H 	0.35720 0.05680 0.18540 0.03900
H 	H 	0.55910 0.98510 0.08890 0.02800
H 	H 	0.90350 0.90160 0.10020 0.06500
H 	H 	0.21360 0.83860 0.17400 0.08500
H 	H 	0.57980 0.69890 0.36050 0.13000
H 	H 	0.78570 0.59080 0.30820 0.00000
H 	H 	0.87110 0.68970 0.11830 -0.02200
H 	H 	0.66350 0.79670 0.17310 0.11800
H 	H 	0.65400 0.59790 0.81230 0.00100
H 	H 	0.16300 0.63350 0.99190 0.04200
H 	H 	0.43570 0.70810 0.04750 0.05600
H 	H 	0.58600 0.81460 0.05680 0.03700
H 	H 	0.45580 0.91110 0.98510 0.03000
H 	H 	0.19490 0.89980 0.90160 0.06200
H 	H 	0.94780 0.82600 0.83860 0.08300
H 	H 	0.72130 0.63950 0.69890 0.13000
H 	H 	0.62350 0.69180 0.59080 0.00100
H 	H 	0.43920 0.88170 0.68970 -0.02100
H 	H 	0.53980 0.82690 0.79670 0.11800
H 	H 	0.06420 0.40210 0.18770 0.00100
H 	H 	0.78840 0.36650 0.00810 0.04200
H 	H 	0.19130 0.29190 0.95250 0.05600
H 	H 	0.45740 0.18540 0.94320 0.03700
H 	H 	0.35200 0.08890 0.01490 0.03000
H 	H 	0.99630 0.10020 0.09840 0.06200
H 	H 	0.61240 0.17400 0.16140 0.08200
H 	H 	0.05970 0.36050 0.30110 0.13000
H 	H 	0.90610 0.30820 0.40920 0.00200
H 	H 	0.01060 0.11830 0.31030 -0.02000
H 	H 	0.16340 0.17310 0.20330 0.11700
C 	C 	0.63004 0.16439 0.62753 0.10500
C 	C 	0.36300 0.09058 0.66562 0.04600
C 	C 	0.20626 0.03822 0.67166 -0.12100
C 	C 	0.04943 0.03128 0.73746 0.02700
C 	C 	0.86942 0.98157 0.74619 -0.07100
C 	C 	0.71656 0.97604 0.80944 -0.03700
C 	C 	0.73500 0.02009 0.86751 -0.01600
C 	C 	0.89790 0.06959 0.86101 -0.09900
C 	C 	0.05851 0.07808 0.79510 0.05300
C 	C 	0.21948 0.13142 0.78802 -0.14000
C 	C 	0.36723 0.13786 0.72288 0.08600
C 	C 	0.59524 0.24631 0.72961 0.21400
C 	C 	0.63570 0.30400 0.68860 -0.24000
C 	C 	0.67270 0.36780 0.71880 0.14200
C 	C 	0.69301 0.36620 0.79518 -0.22700
C 	C 	0.67050 0.30930 0.83290 0.16900
C 	C 	0.63280 0.24550 0.80070 -0.24400
C 	C 	0.74330 0.43260 0.83080 0.47100
C 	C 	0.42196 0.83561 0.37247 0.10400
C 	C 	0.11920 0.90942 0.33438 0.03500
C 	C 	0.91614 0.96178 0.32834 -0.10800
C 	C 	0.81817 0.96872 0.26254 0.02400
C 	C 	0.59718 0.01843 0.25381 -0.07000
C 	C 	0.50204 0.02396 0.19056 -0.04000
C 	C 	0.62260 0.97991 0.13249 -0.01100
C 	C 	0.82850 0.93041 0.13899 -0.10500
C 	C 	0.93169 0.92192 0.20490 0.06100
C 	C 	0.13892 0.86858 0.21198 -0.15100
C 	C 	0.22797 0.86214 0.27712 0.09100
C 	C 	0.57116 0.75369 0.27039 0.21400
C 	C 	0.62830 0.69600 0.31140 -0.24100
C 	C 	0.75930 0.63220 0.28120 0.14200
C 	C 	0.85439 0.63380 0.20482 -0.22900
C 	C 	0.81270 0.69070 0.16710 0.17000
C 	C 	0.67900 0.75450 0.19930 -0.24500
C 	C 	0.00670 0.56740 0.16920 0.47100
C 	C 	0.74243 0.62753 0.83561 0.10400
C 	C 	0.97138 0.66562 0.90942 0.04200
C 	C 	0.12208 0.67166 0.96178 -0.11700
C 	C 	0.21311 0.73746 0.96872 0.03000
C 	C 	0.38439 0.74619 0.01843 -0.07600
C 	C 	0.47400 0.80944 0.02396 -0.03400
C 	C 	0.39749 0.86751 0.97991 -0.01800
C 	C 	0.24109 0.86101 0.93041 -0.09900
C 	C 	0.14639 0.79510 0.92192 0.05200
C 	C 	0.99250 0.78802 0.86858 -0.14100
C 	C 	0.90989 0.72288 0.86214 0.08700
C 	C 	0.67515 0.72961 0.75369 0.21400
C 	C 	0.67570 0.68860 0.69600 -0.24000
C 	C 	0.60850 0.71880 0.63220 0.14200
C 	C 	0.51181 0.79518 0.63380 -0.22700
C 	C 	0.49660 0.83290 0.69070 0.16900
C 	C 	0.56650 0.80070 0.75450 -0.24400
C 	C 	0.42590 0.83080 0.56740 0.47100
C 	C 	0.20557 0.37247 0.16439 0.10500
C 	C 	0.54642 0.33438 0.09058 0.04600
C 	C 	0.75552 0.32834 0.03822 -0.12100
C 	C 	0.91929 0.26254 0.03128 0.02900
C 	C 	0.14901 0.25381 0.98157 -0.07200
C 	C 	0.30740 0.19056 0.97604 -0.03600
C 	C 	0.24491 0.13249 0.02009 -0.01700
C 	C 	0.03251 0.13899 0.06959 -0.09700
C 	C 	0.86341 0.20490 0.07808 0.05100
C 	C 	0.64910 0.21198 0.13142 -0.13900
C 	C 	0.49491 0.27712 0.13786 0.08600
C 	C 	0.15845 0.27039 0.24631 0.21200
C 	C 	0.06030 0.31140 0.30400 -0.24000
C 	C 	0.95950 0.28120 0.36780 0.14000
C 	C 	0.94079 0.20482 0.36620 -0.22100
C 	C 	0.02020 0.16710 0.30930 0.16100
C 	C 	0.12170 0.19930 0.24550 -0.24100
C 	C 	0.82410 0.16920 0.43260 0.46900
N 	N 	0.53388 0.10962 0.60722 -0.26900
N 	N 	0.54056 0.18407 0.69621 -0.16900
N 	N 	0.25072 0.89038 0.39278 -0.26900
N 	N 	0.42084 0.81593 0.30379 -0.17000
N 	N 	0.85890 0.60722 0.89038 -0.27000
N 	N 	0.76323 0.69621 0.81593 -0.16900
N 	N 	0.35650 0.39278 0.10962 -0.26900
N 	N 	0.27537 0.30379 0.18407 -0.16800
O 	O 	0.33701 0.03016 0.47682 -0.57500
O 	O 	0.71479 0.44232 0.88810 -0.56700
O 	O 	0.76840 0.48830 0.78290 -0.29700
O 	O 	0.84399 0.96984 0.52318 -0.57100
O 	O 	0.04521 0.55768 0.11190 -0.56600
O 	O 	0.03960 0.51170 0.21710 -0.29700
O 	O 	0.18617 0.47682 0.96984 -0.57200
O 	O 	0.39711 0.88810 0.55768 -0.56700
O 	O 	0.44870 0.78290 0.51170 -0.29700
O 	O 	0.63283 0.52318 0.03016 -0.57400
O 	O 	0.84289 0.11190 0.44232 -0.56400
O 	O 	0.74330 0.21710 0.48830 -0.29600
