data_crystal

_cell_length_a 5.08830
_cell_length_b 19.05950
_cell_length_c 19.05950
_cell_angle_alpha 88.97910
_cell_angle_beta  82.32930
_cell_angle_gamma 82.32900

_symmetry_space_group_name_	'P 1'
_symmetry_space_group_name_H-M	'P 1'

loop_
_symmetry_equiv_pos_as_xyz
  x,y,z

loop_
_atom_site_label
_atom_site_type_symbol
_atom_site_fract_x
_atom_site_fract_y
_atom_site_fract_z
_atom_site_charge
Zn	Zn	0.47040 0.44239 0.01579 1.21400
Zn	Zn	0.92858 0.55761 0.98421 1.20900
Zn	Zn	0.08721 0.98421 0.44239 1.21200
Zn	Zn	0.51381 0.01579 0.55761 1.21300
H 	H 	0.73450 0.31480 0.10060 -0.01600
H 	H 	0.97360 0.49170 0.13230 0.00800
H 	H 	0.56070 0.54950 0.20610 0.05000
H 	H 	0.28190 0.56020 0.31320 0.04600
H 	H 	0.37730 0.48460 0.40860 0.02900
H 	H 	0.75250 0.40230 0.39910 0.06000
H 	H 	0.14760 0.33770 0.32550 0.07600
H 	H 	0.99480 0.26040 0.18340 0.09100
H 	H 	0.19790 0.16070 0.23950 0.02900
H 	H 	0.47700 0.12950 0.34350 0.03900
H 	H 	0.27130 0.22600 0.28540 0.08800
H 	H 	0.14990 0.68520 0.89940 -0.01700
H 	H 	0.59760 0.50830 0.86770 0.03500
H 	H 	0.31630 0.45050 0.79390 0.05900
H 	H 	0.15530 0.43980 0.68680 0.04200
H 	H 	0.27050 0.51540 0.59140 0.03300
H 	H 	0.55390 0.59770 0.60090 0.05700
H 	H 	0.81080 0.66230 0.67450 0.07300
H 	H 	0.43860 0.73960 0.81660 0.09100
H 	H 	0.59810 0.83930 0.76050 0.03100
H 	H 	0.95000 0.87050 0.65650 0.04300
H 	H 	0.78270 0.77400 0.71460 0.08700
H 	H 	0.95070 0.89940 0.31480 -0.01300
H 	H 	0.53470 0.86770 0.49170 0.03400
H 	H 	0.88980 0.79390 0.54950 0.05700
H 	H 	0.15790 0.68680 0.56020 0.04300
H 	H 	0.13810 0.59140 0.48460 0.03000
H 	H 	0.84520 0.60090 0.40230 0.05900
H 	H 	0.51470 0.67450 0.33770 0.07500
H 	H 	0.74480 0.81660 0.26040 0.08800
H 	H 	0.64140 0.76050 0.16070 0.04000
H 	H 	0.39350 0.65650 0.12950 0.04900
H 	H 	0.50270 0.71460 0.22600 0.08200
H 	H 	0.16490 0.10060 0.68520 -0.01500
H 	H 	0.89410 0.13230 0.50830 0.03700
H 	H 	0.23320 0.20610 0.45050 0.05700
H 	H 	0.40490 0.31320 0.43980 0.04000
H 	H 	0.21410 0.40860 0.51540 0.03200
H 	H 	0.84840 0.39910 0.59770 0.05700
H 	H 	0.52690 0.32550 0.66230 0.07500
H 	H 	0.82180 0.18340 0.73960 0.09500
H 	H 	0.56260 0.23950 0.83930 0.02800
H 	H 	0.17950 0.34350 0.87050 0.03600
H 	H 	0.44330 0.28540 0.77400 0.09000
C 	C 	0.58147 0.33736 0.12970 0.10100
C 	C 	0.22186 0.41045 0.16643 0.02800
C 	C 	0.00727 0.46147 0.17119 -0.06800
C 	C 	0.83634 0.46812 0.23580 0.00200
C 	C 	0.60204 0.51939 0.24453 -0.05400
C 	C 	0.43590 0.52560 0.30780 -0.04500
C 	C 	0.49443 0.48025 0.36529 -0.01200
C 	C 	0.71423 0.43088 0.35946 -0.09100
C 	C 	0.88908 0.42145 0.29399 0.04900
C 	C 	0.11057 0.36852 0.28734 -0.12400
C 	C 	0.27244 0.36304 0.22308 0.08000
C 	C 	0.61989 0.25440 0.23062 0.14600
C 	C 	0.84618 0.13450 0.29494 -0.11600
C 	C 	0.97873 0.07011 0.32943 0.32500
C 	C 	0.88920 0.23390 0.21590 -0.16200
C 	C 	0.00990 0.17440 0.24840 0.05600
C 	C 	0.58140 0.15530 0.30990 0.06900
C 	C 	0.45970 0.21350 0.27710 -0.15900
C 	C 	0.04853 0.66264 0.87030 0.11600
C 	C 	0.79874 0.58955 0.83357 0.04600
C 	C 	0.63993 0.53853 0.82881 -0.12200
C 	C 	0.54026 0.53188 0.76420 0.03500
C 	C 	0.36596 0.48061 0.75547 -0.07300
C 	C 	0.26930 0.47440 0.69220 -0.03000
C 	C 	0.33997 0.51975 0.63471 -0.02200
C 	C 	0.50457 0.56912 0.64054 -0.08100
C 	C 	0.60452 0.57855 0.70601 0.04100
C 	C 	0.76643 0.63148 0.71266 -0.12000
C 	C 	0.85856 0.63696 0.77692 0.06400
C 	C 	0.10491 0.74560 0.76938 0.14700
C 	C 	0.27562 0.86550 0.70506 -0.11000
C 	C 	0.37827 0.92989 0.67057 0.32100
C 	C 	0.33900 0.76610 0.78410 -0.15600
C 	C 	0.43270 0.82560 0.75160 0.04800
C 	C 	0.04660 0.84470 0.69010 0.06400
C 	C 	0.95030 0.78650 0.72290 -0.16000
C 	C 	0.08117 0.87030 0.33736 0.09700
C 	C 	0.36769 0.83357 0.41045 0.04400
C 	C 	0.53126 0.82881 0.46147 -0.11900
C 	C 	0.69554 0.76420 0.46812 0.03200
C 	C 	0.87857 0.75547 0.51939 -0.07100
C 	C 	0.03850 0.69220 0.52560 -0.03700
C 	C 	0.02532 0.63471 0.48025 -0.01400
C 	C 	0.85489 0.64054 0.43088 -0.09000
C 	C 	0.68947 0.70601 0.42145 0.04600
C 	C 	0.52091 0.71266 0.36852 -0.12500
C 	C 	0.36452 0.77692 0.36304 0.07300
C 	C 	0.12571 0.76938 0.25440 0.13800
C 	C 	0.01932 0.70506 0.13450 -0.07300
C 	C 	0.95116 0.67057 0.07011 0.28500
C 	C 	0.87690 0.78410 0.23390 -0.14600
C 	C 	0.81570 0.75160 0.17440 0.01900
C 	C 	0.26330 0.69010 0.15530 0.04200
C 	C 	0.32680 0.72290 0.21350 -0.14200
C 	C 	0.28883 0.12970 0.66264 0.10100
C 	C 	0.61171 0.16643 0.58955 0.04600
C 	C 	0.82154 0.17119 0.53853 -0.12100
C 	C 	0.92786 0.23580 0.53188 0.03700
C 	C 	0.15343 0.24453 0.48061 -0.07600
C 	C 	0.25630 0.30780 0.47440 -0.03100
C 	C 	0.14028 0.36529 0.51975 -0.01900
C 	C 	0.92631 0.35946 0.56912 -0.08400
C 	C 	0.81693 0.29399 0.57855 0.04300
C 	C 	0.60209 0.28734 0.63148 -0.12300
C 	C 	0.50448 0.22308 0.63696 0.07200
C 	C 	0.14949 0.23062 0.74560 0.15400
C 	C 	0.85888 0.29494 0.86550 -0.12800
C 	C 	0.69184 0.32943 0.92989 0.32500
C 	C 	0.89490 0.21590 0.76610 -0.16700
C 	C 	0.74170 0.24840 0.82560 0.05900
C 	C 	0.10870 0.30990 0.84470 0.08700
C 	C 	0.26320 0.27710 0.78650 -0.16800
N 	N 	0.42452 0.39244 0.10932 -0.27200
N 	N 	0.50120 0.31638 0.19662 -0.15700
N 	N 	0.92628 0.60756 0.89068 -0.28500
N 	N 	0.01420 0.68362 0.80338 -0.15400
N 	N 	0.18304 0.89068 0.39244 -0.27600
N 	N 	0.18242 0.80338 0.31638 -0.15400
N 	N 	0.46616 0.10932 0.60756 -0.27600
N 	N 	0.30218 0.19662 0.68362 -0.15700
O 	O 	0.59522 0.53229 0.02967 -0.57000
O 	O 	0.86356 0.05152 0.38796 -0.45400
O 	O 	0.23630 0.05370 0.31330 -0.29300
O 	O 	0.15718 0.46771 0.97033 -0.56100
O 	O 	0.30304 0.94848 0.61204 -0.45600
O 	O 	0.60330 0.94630 0.68670 -0.29000
O 	O 	0.87249 0.97033 0.53229 -0.56500
O 	O 	0.08492 0.61204 0.05152 -0.43400
O 	O 	0.71000 0.68670 0.05370 -0.28400
O 	O 	0.37511 0.02967 0.46771 -0.57000
O 	O 	0.74848 0.38796 0.94848 -0.45900
O 	O 	0.45040 0.31330 0.94630 -0.29000
