data_crystal

_cell_length_a 9.47200
_cell_length_b 11.49770
_cell_length_c 22.50390
_cell_angle_alpha 91.57070
_cell_angle_beta  102.14900
_cell_angle_gamma 114.32500

_symmetry_space_group_name_	'P 1'
_symmetry_space_group_name_H-M	'P 1'

loop_
_symmetry_equiv_pos_as_xyz
  x,y,z

loop_
_atom_site_label
_atom_site_type_symbol
_atom_site_fract_x
_atom_site_fract_y
_atom_site_fract_z
_atom_site_charge
Zn	Zn	0.80570 0.16271 0.73863 1.22200
Zn	Zn	0.40436 0.33729 0.76137 1.22300
Zn	Zn	0.19430 0.83729 0.26137 1.22100
Zn	Zn	0.59564 0.66271 0.23863 1.22200
Zn	Zn	0.83435 0.75000 0.75000 1.17600
Zn	Zn	0.16565 0.25000 0.25000 1.17600
H 	H 	0.31760 0.94690 0.57090 0.03600
H 	H 	0.06650 0.93330 0.52570 0.05600
H 	H 	0.92250 0.98150 0.58510 0.03200
H 	H 	0.91650 0.83290 0.16790 -0.00000
H 	H 	0.83460 0.82710 0.06350 0.07800
H 	H 	0.25200 0.83430 0.04910 0.07700
H 	H 	0.32010 0.83760 0.15300 0.00800
H 	H 	0.74760 0.72320 0.96480 0.07700
H 	H 	0.68200 0.70210 0.86030 0.00200
H 	H 	0.12500 0.89660 0.85700 0.00400
H 	H 	0.20410 0.92050 0.96070 0.08200
H 	H 	0.29980 0.55310 0.92910 0.03400
H 	H 	0.10750 0.56670 0.97430 0.05900
H 	H 	0.85590 0.51850 0.91490 0.02800
H 	H 	0.41570 0.66710 0.33210 -0.00100
H 	H 	0.44400 0.67290 0.43650 0.08000
H 	H 	0.86860 0.66570 0.45090 0.07900
H 	H 	0.82950 0.66240 0.34700 0.00800
H 	H 	0.55960 0.77680 0.53520 0.07500
H 	H 	0.61960 0.79790 0.63970 0.00300
H 	H 	0.87140 0.60340 0.64300 0.00500
H 	H 	0.82290 0.57950 0.53930 0.08000
H 	H 	0.68240 0.05310 0.42910 0.03600
H 	H 	0.93350 0.06670 0.47430 0.05600
H 	H 	0.07750 0.01850 0.41490 0.03200
H 	H 	0.08350 0.16710 0.83210 -0.00000
H 	H 	0.16540 0.17290 0.93650 0.07800
H 	H 	0.74800 0.16570 0.95090 0.07700
H 	H 	0.67990 0.16240 0.84700 0.00800
H 	H 	0.25240 0.27680 0.03520 0.07700
H 	H 	0.31800 0.29790 0.13970 0.00200
H 	H 	0.87500 0.10340 0.14300 0.00400
H 	H 	0.79590 0.07950 0.03930 0.08200
H 	H 	0.70020 0.44690 0.07090 0.03400
H 	H 	0.89250 0.43330 0.02570 0.05900
H 	H 	0.14410 0.48150 0.08510 0.02800
H 	H 	0.58430 0.33290 0.66790 -0.00100
H 	H 	0.55600 0.32710 0.56350 0.08000
H 	H 	0.13140 0.33430 0.54910 0.07900
H 	H 	0.17050 0.33760 0.65300 0.00800
H 	H 	0.44040 0.22320 0.46480 0.07500
H 	H 	0.38040 0.20210 0.36030 0.00300
H 	H 	0.12860 0.39660 0.35700 0.00500
H 	H 	0.17710 0.42050 0.46070 0.08000
C 	C 	0.25841 0.96475 0.59489 -0.00700
C 	C 	0.10794 0.95644 0.56772 -0.07400
C 	C 	0.02080 0.98269 0.60343 0.01300
C 	C 	0.07861 0.01113 0.66687 -0.10300
C 	C 	0.23039 0.02185 0.69447 -0.05300
C 	C 	0.32064 0.99931 0.65741 -0.04700
C 	C 	0.48812 0.01853 0.68239 0.28100
C 	C 	0.29489 0.05521 0.76251 0.33100
C 	C 	0.97247 0.02644 0.70452 0.37600
C 	C 	0.98449 0.83310 0.14344 0.08400
C 	C 	0.93442 0.82976 0.08056 -0.12800
C 	C 	0.03401 0.83046 0.04366 0.05000
C 	C 	0.18121 0.83383 0.07229 -0.12600
C 	C 	0.22169 0.83624 0.13464 0.07400
C 	C 	0.98640 0.82389 0.97625 0.06000
C 	C 	0.82740 0.75845 0.94389 -0.13000
C 	C 	0.78890 0.74611 0.88097 0.06800
C 	C 	0.04782 0.85935 0.87889 0.08300
C 	C 	0.09633 0.87503 0.94149 -0.13600
C 	C 	0.19877 0.53525 0.90511 -0.00100
C 	C 	0.08378 0.54356 0.93228 -0.07900
C 	C 	0.93468 0.51731 0.89657 0.02200
C 	C 	0.90061 0.48887 0.83313 -0.11400
C 	C 	0.01407 0.47815 0.80553 -0.04500
C 	C 	0.16392 0.50069 0.84259 -0.05300
C 	C 	0.28720 0.48147 0.81761 0.28400
C 	C 	0.97717 0.44479 0.73749 0.32600
C 	C 	0.74151 0.47356 0.79548 0.38500
C 	C 	0.50795 0.66690 0.35656 0.08400
C 	C 	0.52410 0.67024 0.41944 -0.13400
C 	C 	0.65989 0.66954 0.45634 0.05800
C 	C 	0.77509 0.66617 0.42771 -0.13000
C 	C 	0.75081 0.66376 0.36536 0.07700
C 	C 	0.68626 0.67611 0.52375 0.05300
C 	C 	0.62506 0.74155 0.55611 -0.12600
C 	C 	0.66182 0.75389 0.61903 0.06600
C 	C 	0.80958 0.64065 0.62111 0.08000
C 	C 	0.77981 0.62497 0.55851 -0.13200
C 	C 	0.74159 0.03525 0.40511 -0.00700
C 	C 	0.89206 0.04356 0.43228 -0.07400
C 	C 	0.97920 0.01731 0.39657 0.01300
C 	C 	0.92139 0.98887 0.33313 -0.10300
C 	C 	0.76961 0.97815 0.30553 -0.05300
C 	C 	0.67936 0.00069 0.34259 -0.04700
C 	C 	0.51188 0.98147 0.31761 0.28100
C 	C 	0.70511 0.94479 0.23749 0.33100
C 	C 	0.02753 0.97356 0.29548 0.37600
C 	C 	0.01551 0.16690 0.85656 0.08400
C 	C 	0.06558 0.17024 0.91944 -0.12800
C 	C 	0.96599 0.16954 0.95634 0.05000
C 	C 	0.81879 0.16617 0.92771 -0.12600
C 	C 	0.77831 0.16376 0.86536 0.07400
C 	C 	0.01360 0.17611 0.02375 0.06000
C 	C 	0.17260 0.24155 0.05611 -0.13000
C 	C 	0.21110 0.25389 0.11903 0.06800
C 	C 	0.95218 0.14065 0.12111 0.08300
C 	C 	0.90367 0.12497 0.05851 -0.13600
C 	C 	0.80123 0.46475 0.09489 -0.00100
C 	C 	0.91622 0.45644 0.06772 -0.07900
C 	C 	0.06532 0.48269 0.10343 0.02200
C 	C 	0.09939 0.51113 0.16687 -0.11400
C 	C 	0.98593 0.52185 0.19447 -0.04500
C 	C 	0.83608 0.49931 0.15741 -0.05300
C 	C 	0.71280 0.51853 0.18239 0.28400
C 	C 	0.02283 0.55521 0.26251 0.32600
C 	C 	0.25849 0.52644 0.20452 0.38500
C 	C 	0.49205 0.33310 0.64344 0.08400
C 	C 	0.47590 0.32976 0.58056 -0.13400
C 	C 	0.34011 0.33046 0.54366 0.05800
C 	C 	0.22491 0.33383 0.57229 -0.13000
C 	C 	0.24919 0.33624 0.63464 0.07700
C 	C 	0.31374 0.32389 0.47625 0.05300
C 	C 	0.37494 0.25845 0.44389 -0.12600
C 	C 	0.33818 0.24611 0.38097 0.06600
C 	C 	0.19042 0.35935 0.37889 0.08000
C 	C 	0.22019 0.37503 0.44149 -0.13200
N 	N 	0.12490 0.83660 0.16998 -0.26800
N 	N 	0.89759 0.79439 0.84765 -0.25600
N 	N 	0.61832 0.66340 0.33002 -0.26700
N 	N 	0.75555 0.70561 0.65235 -0.25500
N 	N 	0.87510 0.16340 0.83002 -0.26800
N 	N 	0.10241 0.20561 0.15235 -0.25600
N 	N 	0.38168 0.33660 0.66998 -0.26700
N 	N 	0.24445 0.29439 0.34765 -0.25500
O 	O 	0.57486 0.11032 0.72312 -0.44800
O 	O 	0.51364 0.91327 0.67421 -0.27400
O 	O 	0.31450 0.97076 0.79278 -0.25100
O 	O 	0.31906 0.16308 0.78724 -0.43100
O 	O 	0.92789 0.11454 0.69200 -0.47200
O 	O 	0.93282 0.95561 0.74423 -0.47800
O 	O 	0.24142 0.38968 0.77688 -0.44800
O 	O 	0.42616 0.58673 0.82579 -0.27500
O 	O 	0.05096 0.52924 0.70722 -0.24900
O 	O 	0.86874 0.33692 0.71276 -0.43000
O 	O 	0.62135 0.38546 0.80800 -0.47400
O 	O 	0.73298 0.54439 0.75577 -0.48300
O 	O 	0.42514 0.88968 0.27688 -0.44800
O 	O 	0.48636 0.08673 0.32579 -0.27400
O 	O 	0.68550 0.02924 0.20722 -0.25100
O 	O 	0.68094 0.83692 0.21276 -0.43100
O 	O 	0.07211 0.88546 0.30800 -0.47200
O 	O 	0.06718 0.04439 0.25577 -0.47800
O 	O 	0.75858 0.61032 0.22312 -0.44800
O 	O 	0.57384 0.41327 0.17421 -0.27500
O 	O 	0.94904 0.47076 0.29278 -0.24900
O 	O 	0.13126 0.66308 0.28724 -0.43000
O 	O 	0.37865 0.61454 0.19200 -0.47400
O 	O 	0.26702 0.45561 0.24423 -0.48300
