data_crystal

_cell_length_a 18.27310
_cell_length_b 18.27310
_cell_length_c 18.27310
_cell_angle_alpha 60.00000
_cell_angle_beta  60.00000
_cell_angle_gamma 60.00000

_symmetry_space_group_name_	'P 1'
_symmetry_space_group_name_H-M	'P 1'

loop_
_symmetry_equiv_pos_as_xyz
  x,y,z

loop_
_atom_site_label
_atom_site_type_symbol
_atom_site_fract_x
_atom_site_fract_y
_atom_site_fract_z
_atom_site_charge
Zn	Zn	0.70646 0.70644 0.88066 1.20800
Zn	Zn	0.70646 0.88066 0.70644 1.20900
Zn	Zn	0.11934 0.29356 0.29356 1.20900
Zn	Zn	0.29357 0.29355 0.11933 1.21000
Zn	Zn	0.29357 0.29355 0.29355 1.20900
Zn	Zn	0.29357 0.11933 0.29355 1.20900
Zn	Zn	0.88068 0.70644 0.70644 1.21000
Zn	Zn	0.70645 0.70645 0.70643 1.20900
H 	H 	0.49797 0.12561 0.79189 0.06100
H 	H 	0.79189 0.58453 0.49797 0.06100
H 	H 	0.49797 0.58453 0.12561 0.05900
H 	H 	0.12561 0.79189 0.49797 0.06300
H 	H 	0.49797 0.79189 0.58453 0.06100
H 	H 	0.79189 0.49797 0.12561 0.05900
H 	H 	0.50203 0.20811 0.87439 0.06100
H 	H 	0.87439 0.41547 0.50203 0.05900
H 	H 	0.87439 0.50203 0.20811 0.05900
H 	H 	0.50203 0.87439 0.41547 0.05900
H 	H 	0.20811 0.87439 0.50203 0.05700
H 	H 	0.50203 0.41547 0.20811 0.06200
H 	H 	0.41547 0.20811 0.87439 0.06200
H 	H 	0.87439 0.50203 0.41547 0.05800
H 	H 	0.41547 0.50203 0.20811 0.06200
H 	H 	0.20811 0.87439 0.41547 0.05800
H 	H 	0.41547 0.87439 0.50203 0.05900
H 	H 	0.87439 0.41547 0.20811 0.06000
H 	H 	0.58453 0.12561 0.79189 0.06100
H 	H 	0.79189 0.49797 0.58453 0.06200
H 	H 	0.79189 0.58453 0.12561 0.05900
H 	H 	0.58453 0.79189 0.49797 0.06000
H 	H 	0.12561 0.79189 0.58453 0.06300
H 	H 	0.58453 0.49797 0.12561 0.05900
H 	H 	0.94371 0.14939 0.45345 0.04600
H 	H 	0.85130 0.06094 0.54388 0.03700
H 	H 	0.45345 0.45345 0.94371 0.04300
H 	H 	0.54388 0.54388 0.85130 0.04000
H 	H 	0.45612 0.14870 0.45612 0.04200
H 	H 	0.54388 0.06094 0.54388 0.03900
H 	H 	0.14870 0.45612 0.93906 0.04000
H 	H 	0.06094 0.54388 0.85130 0.04100
H 	H 	0.06094 0.54388 0.54388 0.03800
H 	H 	0.14939 0.45345 0.45345 0.04600
H 	H 	0.45612 0.93906 0.14870 0.03900
H 	H 	0.54388 0.85130 0.06094 0.04000
C 	C 	0.61201 0.88799 0.88799 0.38600
C 	C 	0.55648 0.94352 0.94352 -0.14100
C 	C 	0.52817 0.02965 0.91401 0.06800
C 	C 	0.52664 0.11266 0.83406 -0.11200
C 	C 	0.52817 0.91401 0.02965 0.00100
C 	C 	0.88799 0.61201 0.61201 0.39000
C 	C 	0.94352 0.55648 0.55648 -0.15200
C 	C 	0.91401 0.52817 0.52817 0.07500
C 	C 	0.83406 0.52664 0.52664 -0.11900
C 	C 	0.02965 0.52817 0.52817 0.01400
C 	C 	0.61201 0.61201 0.88799 0.38600
C 	C 	0.55648 0.55648 0.94352 -0.14300
C 	C 	0.52817 0.52817 0.02965 0.06600
C 	C 	0.52664 0.52664 0.11266 -0.11000
C 	C 	0.52817 0.52817 0.91401 0.00500
C 	C 	0.88799 0.88799 0.61201 0.39000
C 	C 	0.94352 0.94352 0.55648 -0.15300
C 	C 	0.91401 0.02965 0.52817 0.01500
C 	C 	0.02965 0.91401 0.52817 0.07700
C 	C 	0.11266 0.83406 0.52664 -0.12200
C 	C 	0.61201 0.88799 0.61201 0.38900
C 	C 	0.55648 0.94352 0.55648 -0.14900
C 	C 	0.52817 0.91401 0.52817 0.07300
C 	C 	0.52664 0.83406 0.52664 -0.11700
C 	C 	0.52817 0.02965 0.52817 0.00900
C 	C 	0.88799 0.61201 0.88799 0.38500
C 	C 	0.94352 0.55648 0.94352 -0.14000
C 	C 	0.91401 0.52817 0.02965 0.06500
C 	C 	0.83406 0.52664 0.11266 -0.11100
C 	C 	0.02965 0.52817 0.91401 0.00200
C 	C 	0.38799 0.11201 0.11201 0.38700
C 	C 	0.44352 0.05648 0.05648 -0.14300
C 	C 	0.47183 0.97035 0.08599 0.00300
C 	C 	0.47183 0.08599 0.97035 0.07000
C 	C 	0.47336 0.16594 0.88734 -0.11500
C 	C 	0.11201 0.38799 0.38799 0.38400
C 	C 	0.05648 0.44352 0.44352 -0.13800
C 	C 	0.97035 0.47183 0.47183 0.06300
C 	C 	0.88734 0.47336 0.47336 -0.10800
C 	C 	0.08599 0.47183 0.47183 -0.00400
C 	C 	0.11201 0.38799 0.11201 0.38700
C 	C 	0.05648 0.44352 0.05648 -0.14300
C 	C 	0.08599 0.47183 0.97035 0.00600
C 	C 	0.97035 0.47183 0.08599 0.06800
C 	C 	0.88734 0.47336 0.16594 -0.11400
C 	C 	0.38799 0.11201 0.38799 0.38600
C 	C 	0.44352 0.05648 0.44352 -0.14100
C 	C 	0.47183 0.97035 0.47183 0.06500
C 	C 	0.47336 0.88734 0.47336 -0.11000
C 	C 	0.47183 0.08599 0.47183 0.00200
C 	C 	0.11201 0.11201 0.38799 0.38200
C 	C 	0.05648 0.05648 0.44352 -0.13100
C 	C 	0.97035 0.08599 0.47183 -0.01000
C 	C 	0.08599 0.97035 0.47183 0.05800
C 	C 	0.16594 0.88734 0.47336 -0.10400
C 	C 	0.38799 0.38799 0.11201 0.38800
C 	C 	0.44352 0.44352 0.05648 -0.14800
C 	C 	0.47183 0.47183 0.97035 0.00400
C 	C 	0.47183 0.47183 0.08599 0.07200
C 	C 	0.47336 0.47336 0.16594 -0.11700
O 	O 	0.75000 0.75000 0.75000 -0.96400
O 	O 	0.63341 0.80371 0.92947 -0.50400
O 	O 	0.63341 0.92947 0.80371 -0.50300
O 	O 	0.92947 0.63341 0.63341 -0.50500
O 	O 	0.80371 0.63341 0.63341 -0.50500
O 	O 	0.63341 0.63341 0.80371 -0.50500
O 	O 	0.63341 0.63341 0.92947 -0.50400
O 	O 	0.92947 0.80371 0.63341 -0.50500
O 	O 	0.80371 0.92947 0.63341 -0.50500
O 	O 	0.63341 0.92947 0.63341 -0.50500
O 	O 	0.63341 0.80371 0.63341 -0.50500
O 	O 	0.92947 0.63341 0.80371 -0.50400
O 	O 	0.80371 0.63341 0.92947 -0.50400
O 	O 	0.25000 0.25000 0.25000 -0.96400
O 	O 	0.36659 0.19629 0.07053 -0.50400
O 	O 	0.36659 0.07053 0.19629 -0.50500
O 	O 	0.19629 0.36659 0.36659 -0.50500
O 	O 	0.07053 0.36659 0.36659 -0.50400
O 	O 	0.07053 0.36659 0.19629 -0.50400
O 	O 	0.19629 0.36659 0.07053 -0.50500
O 	O 	0.36659 0.19629 0.36659 -0.50400
O 	O 	0.36659 0.07053 0.36659 -0.50400
O 	O 	0.19629 0.07053 0.36659 -0.50300
O 	O 	0.07053 0.19629 0.36659 -0.50400
O 	O 	0.36659 0.36659 0.19629 -0.50400
O 	O 	0.36659 0.36659 0.07053 -0.50600
