data_crystal

_cell_length_a 5.94660
_cell_length_b 10.22470
_cell_length_c 16.64960
_cell_angle_alpha 72.21300
_cell_angle_beta  79.71800
_cell_angle_gamma 89.79100

_symmetry_space_group_name_	'P 1'
_symmetry_space_group_name_H-M	'P 1'

loop_
_symmetry_equiv_pos_as_xyz
  x,y,z

loop_
_atom_site_label
_atom_site_type_symbol
_atom_site_fract_x
_atom_site_fract_y
_atom_site_fract_z
_atom_site_charge
Ca	Ca	0.75595 0.87952 0.99633 1.49100
Ca	Ca	0.05062 0.18055 0.39568 1.51500
Ca	Ca	0.45185 0.57902 0.60335 1.51900
Ca	Ca	0.24405 0.12048 0.00367 1.49200
Ca	Ca	0.94938 0.81945 0.60432 1.51600
Ca	Ca	0.54815 0.42098 0.39665 1.51900
H 	H 	0.29600 0.35250 0.74280 0.28100
H 	H 	0.15810 0.01870 0.35960 0.07100
H 	H 	0.75790 0.24920 0.79220 0.16900
H 	H 	0.91670 0.13760 0.76580 0.18800
H 	H 	0.01930 0.19030 0.63410 0.18000
H 	H 	0.84430 0.30800 0.60930 0.18000
H 	H 	0.48760 0.82030 0.37060 0.18200
H 	H 	0.65910 0.91640 0.39410 0.17400
H 	H 	0.74190 0.02900 0.20930 0.15600
H 	H 	0.58510 0.89020 0.24050 0.16600
H 	H 	0.70400 0.64750 0.25720 0.28100
H 	H 	0.84190 0.98130 0.64040 0.07100
H 	H 	0.24210 0.75080 0.20780 0.16900
H 	H 	0.08330 0.86240 0.23420 0.18800
H 	H 	0.98070 0.80970 0.36590 0.18000
H 	H 	0.15570 0.69200 0.39070 0.18000
H 	H 	0.51240 0.17970 0.62940 0.18200
H 	H 	0.34090 0.08360 0.60590 0.17400
H 	H 	0.25810 0.97100 0.79070 0.15600
H 	H 	0.41490 0.10980 0.75950 0.16600
C 	C 	0.02080 0.20280 0.85850 0.47700
C 	C 	0.91910 0.22600 0.77860 -0.51000
C 	C 	0.03540 0.33740 0.69580 0.30500
C 	C 	0.00320 0.29090 0.61850 -0.53500
C 	C 	0.16310 0.35760 0.53430 0.53400
C 	C 	0.92290 0.47570 0.68750 0.25800
C 	C 	0.33840 0.89400 0.46740 0.53500
C 	C 	0.50110 0.90700 0.38460 -0.52700
C 	C 	0.46730 0.02740 0.30610 0.25500
C 	C 	0.58120 0.99160 0.22500 -0.45800
C 	C 	0.47250 0.04220 0.14550 0.47900
C 	C 	0.57930 0.15960 0.31080 0.26600
C 	C 	0.97920 0.79720 0.14150 0.47700
C 	C 	0.08090 0.77400 0.22140 -0.51000
C 	C 	0.96460 0.66260 0.30420 0.30500
C 	C 	0.99680 0.70910 0.38150 -0.53500
C 	C 	0.83690 0.64240 0.46570 0.53400
C 	C 	0.07710 0.52430 0.31250 0.25800
C 	C 	0.66160 0.10600 0.53260 0.53500
C 	C 	0.49890 0.09300 0.61540 -0.52700
C 	C 	0.53270 0.97260 0.69390 0.25500
C 	C 	0.41880 0.00840 0.77500 -0.45800
C 	C 	0.52750 0.95780 0.85450 0.47900
C 	C 	0.42070 0.84040 0.68920 0.26600
O 	O 	0.17580 0.28350 0.86130 -0.49400
O 	O 	0.94980 0.09760 0.92010 -0.62600
O 	O 	0.18800 0.29360 0.48040 -0.60900
O 	O 	0.26690 0.47130 0.52050 -0.55700
O 	O 	0.04900 0.58160 0.67370 -0.48600
O 	O 	0.71070 0.47130 0.69360 -0.42600
O 	O 	0.27490 0.35320 0.69410 -0.56800
O 	O 	0.23470 0.99260 0.48130 -0.57400
O 	O 	0.31060 0.77610 0.52180 -0.60800
O 	O 	0.54810 0.00160 0.08300 -0.63600
O 	O 	0.31060 0.12020 0.14490 -0.47800
O 	O 	0.45410 0.25420 0.32220 -0.48100
O 	O 	0.79210 0.16440 0.30340 -0.40900
O 	O 	0.22710 0.04100 0.30830 -0.40000
O 	O 	0.82420 0.71650 0.13870 -0.49400
O 	O 	0.05020 0.90240 0.07990 -0.62600
O 	O 	0.81200 0.70640 0.51960 -0.60900
O 	O 	0.73310 0.52870 0.47950 -0.55700
O 	O 	0.95100 0.41840 0.32630 -0.48600
O 	O 	0.28930 0.52870 0.30640 -0.42600
O 	O 	0.72510 0.64680 0.30590 -0.56800
O 	O 	0.76530 0.00740 0.51870 -0.57400
O 	O 	0.68940 0.22390 0.47820 -0.60800
O 	O 	0.45190 0.99840 0.91700 -0.63600
O 	O 	0.68940 0.87980 0.85510 -0.47800
O 	O 	0.54590 0.74580 0.67780 -0.48100
O 	O 	0.20790 0.83560 0.69660 -0.40900
O 	O 	0.77290 0.95900 0.69170 -0.40000
