data_crystal

_cell_length_a 10.07000
_cell_length_b 11.38300
_cell_length_c 13.93600
_cell_angle_alpha 90.00000
_cell_angle_beta  101.95500
_cell_angle_gamma 90.00000

_symmetry_space_group_name_	'P 1'
_symmetry_space_group_name_H-M	'P 1'

loop_
_symmetry_equiv_pos_as_xyz
  x,y,z

loop_
_atom_site_label
_atom_site_type_symbol
_atom_site_fract_x
_atom_site_fract_y
_atom_site_fract_z
_atom_site_charge
Zn	Zn	0.37430 0.00000 0.59954 1.21800
Zn	Zn	0.62570 0.00000 0.40046 1.21800
H 	H 	0.52110 0.78890 0.71000 0.01300
H 	H 	0.53110 0.59070 0.71060 0.08300
H 	H 	0.21850 0.59290 0.48560 0.08400
H 	H 	0.22760 0.78860 0.48630 0.00700
H 	H 	0.47890 0.78890 0.29000 0.01300
H 	H 	0.46890 0.59070 0.28940 0.08300
H 	H 	0.78150 0.59290 0.51440 0.08400
H 	H 	0.77240 0.78860 0.51370 0.00700
H 	H 	0.47890 0.21110 0.29000 0.00100
H 	H 	0.46890 0.40930 0.28940 0.08400
H 	H 	0.78150 0.40710 0.51440 0.08500
H 	H 	0.77240 0.21140 0.51370 -0.00400
H 	H 	0.52110 0.21110 0.71000 0.00100
H 	H 	0.53110 0.40930 0.71060 0.08400
H 	H 	0.21850 0.40710 0.48560 0.08500
H 	H 	0.22760 0.21140 0.48630 -0.00400
H 	H 	0.91610 -0.00000 0.60070 0.06100
H 	H 	0.14710 0.00000 0.87260 0.08800
H 	H 	0.74110 -0.00000 0.83500 0.07700
H 	H 	0.08390 0.00000 0.39930 0.06100
H 	H 	0.85290 0.00000 0.12740 0.08800
H 	H 	0.25890 0.00000 0.16500 0.07700
C 	C 	0.46100 0.74840 0.66170 0.09500
C 	C 	0.46640 0.62880 0.66360 -0.13800
C 	C 	0.37580 0.56370 0.59570 0.06400
C 	C 	0.28520 0.63020 0.53160 -0.14700
C 	C 	0.29000 0.74820 0.53320 0.10400
C 	C 	0.53900 0.74840 0.33830 0.09500
C 	C 	0.53360 0.62880 0.33640 -0.13800
C 	C 	0.62420 0.56370 0.40430 0.06400
C 	C 	0.71480 0.63020 0.46840 -0.14700
C 	C 	0.71000 0.74820 0.46680 0.10400
C 	C 	0.53900 0.25160 0.33830 0.09700
C 	C 	0.53360 0.37120 0.33640 -0.14500
C 	C 	0.62420 0.43630 0.40430 0.06900
C 	C 	0.71480 0.36980 0.46840 -0.15300
C 	C 	0.71000 0.25180 0.46680 0.10600
C 	C 	0.46100 0.25160 0.66170 0.09700
C 	C 	0.46640 0.37120 0.66360 -0.14500
C 	C 	0.37580 0.43630 0.59570 0.06900
C 	C 	0.28520 0.36980 0.53160 -0.15300
C 	C 	0.29000 0.25180 0.53320 0.10600
C 	C 	0.66840 -0.00000 0.63880 0.41300
C 	C 	0.80640 -0.00000 0.70570 -0.08300
C 	C 	0.92310 -0.00000 0.66830 -0.00700
C 	C 	0.05210 -0.00000 0.73060 -0.03800
C 	C 	0.17830 -0.00000 0.68900 0.29500
C 	C 	0.06220 0.00000 0.83080 -0.08200
C 	C 	0.94470 0.00000 0.86970 0.09500
C 	C 	0.81870 0.00000 0.80850 -0.06700
C 	C 	0.33160 -0.00000 0.36120 0.41300
C 	C 	0.19360 0.00000 0.29430 -0.08300
C 	C 	0.07690 0.00000 0.33170 -0.00700
C 	C 	0.94790 0.00000 0.26940 -0.03800
C 	C 	0.82170 0.00000 0.31100 0.29500
C 	C 	0.93780 -0.00000 0.16920 -0.08200
C 	C 	0.05530 0.00000 0.13030 0.09500
C 	C 	0.18130 -0.00000 0.19150 -0.06700
N 	N 	0.37690 0.81030 0.59650 -0.23100
N 	N 	0.62310 0.81030 0.40350 -0.23100
N 	N 	0.62310 0.18970 0.40350 -0.24300
N 	N 	0.37690 0.18970 0.59650 -0.24300
N 	N 	0.94410 -0.00000 0.97240 -0.08700
N 	N 	0.05590 0.00000 0.02760 -0.08700
O 	O 	0.56780 -0.00000 0.68010 -0.46200
O 	O 	0.66260 0.00000 0.55090 -0.50500
O 	O 	0.16440 0.00000 0.59820 -0.39700
O 	O 	0.29120 0.00000 0.74570 -0.35000
O 	O 	0.43220 0.00000 0.31990 -0.46200
O 	O 	0.33740 -0.00000 0.44910 -0.50500
O 	O 	0.83560 -0.00000 0.40180 -0.39700
O 	O 	0.70880 0.00000 0.25430 -0.35000
