data_crystal

_cell_length_a 10.27400
_cell_length_b 14.72400
_cell_length_c 29.50000
_cell_angle_alpha 90.00000
_cell_angle_beta  90.00000
_cell_angle_gamma 90.00000

_symmetry_space_group_name_	'P 1'
_symmetry_space_group_name_H-M	'P 1'

loop_
_symmetry_equiv_pos_as_xyz
  x,y,z

loop_
_atom_site_label
_atom_site_type_symbol
_atom_site_fract_x
_atom_site_fract_y
_atom_site_fract_z
_atom_site_charge
Zn	Zn	0.25000 0.75000 0.52797 1.20300
Zn	Zn	0.75000 0.75000 0.02797 1.20300
Zn	Zn	0.25000 0.25000 0.24245 1.20800
Zn	Zn	0.75000 0.25000 0.74245 1.20800
Zn	Zn	0.25000 0.25000 0.97203 1.20200
Zn	Zn	0.75000 0.25000 0.47203 1.20200
Zn	Zn	0.25000 0.75000 0.25755 1.20800
Zn	Zn	0.75000 0.75000 0.75755 1.20800
H 	H 	0.14180 0.90670 0.65150 0.06100
H 	H 	0.04710 0.00050 0.70390 0.04500
H 	H 	0.81200 0.10000 0.60920 0.03900
H 	H 	0.90430 0.00510 0.55630 0.06800
H 	H 	0.44350 0.71400 0.45490 -0.01600
H 	H 	0.56060 0.78780 0.40070 0.10900
H 	H 	0.42200 0.02410 0.44890 0.11300
H 	H 	0.30840 0.94480 0.50170 -0.01800
H 	H 	0.40060 0.98540 0.33250 0.14400
H 	H 	0.28470 0.06690 0.28060 -0.03200
H 	H 	0.47160 0.28680 0.30520 -0.02800
H 	H 	0.59110 0.21790 0.35980 0.12700
H 	H 	0.63920 0.92780 0.37170 0.12500
H 	H 	0.62880 0.08560 0.40380 0.12900
H 	H 	0.35820 0.59330 0.65150 0.06200
H 	H 	0.45290 0.49950 0.70390 0.04400
H 	H 	0.68800 0.40000 0.60920 0.03800
H 	H 	0.59570 0.49490 0.55630 0.06900
H 	H 	0.05650 0.78600 0.45490 -0.01600
H 	H 	0.93940 0.71220 0.40070 0.10900
H 	H 	0.07800 0.47590 0.44890 0.11200
H 	H 	0.19160 0.55520 0.50170 -0.01800
H 	H 	0.09940 0.51460 0.33250 0.14400
H 	H 	0.21530 0.43310 0.28060 -0.03200
H 	H 	0.02840 0.21320 0.30520 -0.02900
H 	H 	0.90890 0.28210 0.35980 0.12700
H 	H 	0.86080 0.57220 0.37170 0.12500
H 	H 	0.87120 0.41440 0.40380 0.12900
H 	H 	0.85820 0.90670 0.15150 0.06100
H 	H 	0.95290 0.00050 0.20390 0.04500
H 	H 	0.18800 0.10000 0.10920 0.03900
H 	H 	0.09570 0.00510 0.05630 0.06800
H 	H 	0.55650 0.71400 0.95490 -0.01600
H 	H 	0.43940 0.78780 0.90070 0.10900
H 	H 	0.57800 0.02410 0.94890 0.11200
H 	H 	0.69160 0.94480 0.00170 -0.01900
H 	H 	0.59940 0.98540 0.83250 0.14500
H 	H 	0.71530 0.06690 0.78060 -0.03200
H 	H 	0.52840 0.28680 0.80520 -0.02800
H 	H 	0.40890 0.21790 0.85980 0.12700
H 	H 	0.36080 0.92780 0.87170 0.12500
H 	H 	0.37120 0.08560 0.90380 0.12900
H 	H 	0.64180 0.59330 0.15150 0.06200
H 	H 	0.54710 0.49950 0.20390 0.04400
H 	H 	0.31200 0.40000 0.10920 0.03800
H 	H 	0.40430 0.49490 0.05630 0.06900
H 	H 	0.94350 0.78600 0.95490 -0.01600
H 	H 	0.06060 0.71220 0.90070 0.10900
H 	H 	0.92200 0.47590 0.94890 0.11300
H 	H 	0.80840 0.55520 0.00170 -0.01900
H 	H 	0.90060 0.51460 0.83250 0.14400
H 	H 	0.78470 0.43310 0.78060 -0.03200
H 	H 	0.97160 0.21320 0.80520 -0.02900
H 	H 	0.09110 0.28210 0.85980 0.12700
H 	H 	0.13920 0.57220 0.87170 0.12500
H 	H 	0.12880 0.41440 0.90380 0.12900
H 	H 	0.14180 0.09330 0.84850 0.06100
H 	H 	0.04710 0.99950 0.79610 0.04500
H 	H 	0.81200 0.90000 0.89080 0.03900
H 	H 	0.90430 0.99490 0.94370 0.06800
H 	H 	0.44350 0.28600 0.04510 -0.01600
H 	H 	0.56060 0.21220 0.09930 0.10900
H 	H 	0.42200 0.97590 0.05110 0.11200
H 	H 	0.30840 0.05520 0.99830 -0.01900
H 	H 	0.40060 0.01460 0.16750 0.14500
H 	H 	0.28470 0.93310 0.21940 -0.03200
H 	H 	0.47160 0.71320 0.19480 -0.02800
H 	H 	0.59110 0.78210 0.14020 0.12700
H 	H 	0.63920 0.07220 0.12830 0.12500
H 	H 	0.62880 0.91440 0.09620 0.12900
H 	H 	0.35820 0.40670 0.84850 0.06200
H 	H 	0.45290 0.50050 0.79610 0.04400
H 	H 	0.68800 0.60000 0.89080 0.03800
H 	H 	0.59570 0.50510 0.94370 0.06900
H 	H 	0.05650 0.21400 0.04510 -0.01600
H 	H 	0.93940 0.28780 0.09930 0.10900
H 	H 	0.07800 0.52410 0.05110 0.11300
H 	H 	0.19160 0.44480 0.99830 -0.01900
H 	H 	0.09940 0.48540 0.16750 0.14400
H 	H 	0.21530 0.56690 0.21940 -0.03200
H 	H 	0.02840 0.78680 0.19480 -0.02900
H 	H 	0.90890 0.71790 0.14020 0.12700
H 	H 	0.86080 0.42780 0.12830 0.12500
H 	H 	0.87120 0.58560 0.09620 0.12900
H 	H 	0.85820 0.09330 0.34850 0.06100
H 	H 	0.95290 0.99950 0.29610 0.04500
H 	H 	0.18800 0.90000 0.39080 0.03900
H 	H 	0.09570 0.99490 0.44370 0.06800
H 	H 	0.55650 0.28600 0.54510 -0.01600
H 	H 	0.43940 0.21220 0.59930 0.10900
H 	H 	0.57800 0.97590 0.55110 0.11300
H 	H 	0.69160 0.05520 0.49830 -0.01800
H 	H 	0.59940 0.01460 0.66750 0.14400
H 	H 	0.71530 0.93310 0.71940 -0.03200
H 	H 	0.52840 0.71320 0.69480 -0.02800
H 	H 	0.40890 0.78210 0.64020 0.12700
H 	H 	0.36080 0.07220 0.62830 0.12500
H 	H 	0.37120 0.91440 0.59620 0.12900
H 	H 	0.64180 0.40670 0.34850 0.06200
H 	H 	0.54710 0.50050 0.29610 0.04400
H 	H 	0.31200 0.60000 0.39080 0.03800
H 	H 	0.40430 0.50510 0.44370 0.06900
H 	H 	0.94350 0.21400 0.54510 -0.01600
H 	H 	0.06060 0.28780 0.59930 0.10900
H 	H 	0.92200 0.52410 0.55110 0.11200
H 	H 	0.80840 0.44480 0.49830 -0.01800
H 	H 	0.90060 0.48540 0.66750 0.14400
H 	H 	0.78470 0.56690 0.71940 -0.03200
H 	H 	0.97160 0.78680 0.69480 -0.02900
H 	H 	0.09110 0.71790 0.64020 0.12700
H 	H 	0.13920 0.42780 0.62830 0.12500
H 	H 	0.12880 0.58560 0.59620 0.12900
C 	C 	0.09410 0.88360 0.56320 0.32400
C 	C 	0.03420 0.94680 0.59798 -0.04400
C 	C 	0.07540 0.94580 0.64269 -0.04800
C 	C 	0.01860 0.00210 0.67400 0.01000
C 	C 	0.92020 0.06100 0.66210 -0.10800
C 	C 	0.87880 0.06110 0.61790 0.01200
C 	C 	0.93440 0.00440 0.58599 -0.05000
C 	C 	0.86170 0.12470 0.69590 0.40000
C 	C 	0.44000 0.77710 0.45390 0.11400
C 	C 	0.51210 0.82100 0.42150 -0.21600
C 	C 	0.51240 0.91560 0.41990 0.19700
C 	C 	0.42970 0.96120 0.45010 -0.21400
C 	C 	0.36050 0.91290 0.48142 0.11400
C 	C 	0.51160 0.09330 0.35183 0.22900
C 	C 	0.41710 0.04680 0.32780 -0.26000
C 	C 	0.34940 0.09700 0.29673 0.15900
C 	C 	0.45690 0.22560 0.31101 0.15800
C 	C 	0.52980 0.18490 0.34346 -0.26500
C 	C 	0.40590 0.61640 0.56320 0.32400
C 	C 	0.46580 0.55320 0.59798 -0.04300
C 	C 	0.42460 0.55420 0.64269 -0.05000
C 	C 	0.48140 0.49790 0.67400 0.01300
C 	C 	0.57980 0.43900 0.66210 -0.11000
C 	C 	0.62120 0.43890 0.61790 0.01300
C 	C 	0.56560 0.49560 0.58599 -0.05200
C 	C 	0.63830 0.37530 0.69590 0.40100
C 	C 	0.06000 0.72290 0.45390 0.11400
C 	C 	0.98790 0.67900 0.42150 -0.21700
C 	C 	0.98760 0.58440 0.41990 0.19700
C 	C 	0.07030 0.53880 0.45010 -0.21400
C 	C 	0.13950 0.58710 0.48142 0.11300
C 	C 	0.98840 0.40670 0.35183 0.22800
C 	C 	0.08290 0.45320 0.32780 -0.25900
C 	C 	0.15060 0.40300 0.29673 0.15900
C 	C 	0.04310 0.27440 0.31101 0.15900
C 	C 	0.97020 0.31510 0.34346 -0.26600
C 	C 	0.90590 0.88360 0.06320 0.32500
C 	C 	0.96580 0.94680 0.09798 -0.04500
C 	C 	0.92460 0.94580 0.14269 -0.04800
C 	C 	0.98140 0.00210 0.17400 0.01000
C 	C 	0.07980 0.06100 0.16210 -0.10700
C 	C 	0.12120 0.06110 0.11790 0.01100
C 	C 	0.06560 0.00440 0.08599 -0.04900
C 	C 	0.13830 0.12470 0.19590 0.40000
C 	C 	0.56000 0.77710 0.95390 0.11400
C 	C 	0.48790 0.82100 0.92150 -0.21600
C 	C 	0.48760 0.91560 0.91990 0.19700
C 	C 	0.57030 0.96120 0.95010 -0.21300
C 	C 	0.63950 0.91290 0.98142 0.11400
C 	C 	0.48840 0.09330 0.85183 0.22900
C 	C 	0.58290 0.04680 0.82780 -0.26100
C 	C 	0.65060 0.09700 0.79673 0.15900
C 	C 	0.54310 0.22560 0.81101 0.15800
C 	C 	0.47020 0.18490 0.84346 -0.26500
C 	C 	0.59410 0.61640 0.06320 0.32400
C 	C 	0.53420 0.55320 0.09798 -0.04300
C 	C 	0.57540 0.55420 0.14269 -0.05000
C 	C 	0.51860 0.49790 0.17400 0.01300
C 	C 	0.42020 0.43900 0.16210 -0.11000
C 	C 	0.37880 0.43890 0.11790 0.01300
C 	C 	0.43440 0.49560 0.08599 -0.05200
C 	C 	0.36170 0.37530 0.19590 0.40100
C 	C 	0.94000 0.72290 0.95390 0.11400
C 	C 	0.01210 0.67900 0.92150 -0.21700
C 	C 	0.01240 0.58440 0.91990 0.19700
C 	C 	0.92970 0.53880 0.95010 -0.21400
C 	C 	0.86050 0.58710 0.98142 0.11400
C 	C 	0.01160 0.40670 0.85183 0.22800
C 	C 	0.91710 0.45320 0.82780 -0.25900
C 	C 	0.84940 0.40300 0.79673 0.15900
C 	C 	0.95690 0.27440 0.81101 0.15900
C 	C 	0.02980 0.31510 0.84346 -0.26600
C 	C 	0.09410 0.11640 0.93680 0.32500
C 	C 	0.03420 0.05320 0.90202 -0.04500
C 	C 	0.07540 0.05420 0.85731 -0.04800
C 	C 	0.01860 0.99790 0.82600 0.01000
C 	C 	0.92020 0.93900 0.83790 -0.10700
C 	C 	0.87880 0.93890 0.88210 0.01100
C 	C 	0.93440 0.99560 0.91401 -0.04900
C 	C 	0.86170 0.87530 0.80410 0.40000
C 	C 	0.44000 0.22290 0.04610 0.11400
C 	C 	0.51210 0.17900 0.07850 -0.21600
C 	C 	0.51240 0.08440 0.08010 0.19700
C 	C 	0.42970 0.03880 0.04990 -0.21300
C 	C 	0.36050 0.08710 0.01858 0.11400
C 	C 	0.51160 0.90670 0.14817 0.22900
C 	C 	0.41710 0.95320 0.17220 -0.26100
C 	C 	0.34940 0.90300 0.20327 0.15900
C 	C 	0.45690 0.77440 0.18899 0.15800
C 	C 	0.52980 0.81510 0.15654 -0.26500
C 	C 	0.40590 0.38360 0.93680 0.32400
C 	C 	0.46580 0.44680 0.90202 -0.04300
C 	C 	0.42460 0.44580 0.85731 -0.05000
C 	C 	0.48140 0.50210 0.82600 0.01300
C 	C 	0.57980 0.56100 0.83790 -0.11000
C 	C 	0.62120 0.56110 0.88210 0.01300
C 	C 	0.56560 0.50440 0.91401 -0.05200
C 	C 	0.63830 0.62470 0.80410 0.40100
C 	C 	0.06000 0.27710 0.04610 0.11400
C 	C 	0.98790 0.32100 0.07850 -0.21700
C 	C 	0.98760 0.41560 0.08010 0.19700
C 	C 	0.07030 0.46120 0.04990 -0.21400
C 	C 	0.13950 0.41290 0.01858 0.11400
C 	C 	0.98840 0.59330 0.14817 0.22800
C 	C 	0.08290 0.54680 0.17220 -0.25900
C 	C 	0.15060 0.59700 0.20327 0.15900
C 	C 	0.04310 0.72560 0.18899 0.15900
C 	C 	0.97020 0.68490 0.15654 -0.26600
C 	C 	0.90590 0.11640 0.43680 0.32400
C 	C 	0.96580 0.05320 0.40202 -0.04400
C 	C 	0.92460 0.05420 0.35731 -0.04800
C 	C 	0.98140 0.99790 0.32600 0.01000
C 	C 	0.07980 0.93900 0.33790 -0.10800
C 	C 	0.12120 0.93890 0.38210 0.01200
C 	C 	0.06560 0.99560 0.41401 -0.05000
C 	C 	0.13830 0.87530 0.30410 0.40000
C 	C 	0.56000 0.22290 0.54610 0.11400
C 	C 	0.48790 0.17900 0.57850 -0.21600
C 	C 	0.48760 0.08440 0.58010 0.19700
C 	C 	0.57030 0.03880 0.54990 -0.21400
C 	C 	0.63950 0.08710 0.51858 0.11400
C 	C 	0.48840 0.90670 0.64817 0.22900
C 	C 	0.58290 0.95320 0.67220 -0.26000
C 	C 	0.65060 0.90300 0.70327 0.15900
C 	C 	0.54310 0.77440 0.68899 0.15800
C 	C 	0.47020 0.81510 0.65654 -0.26500
C 	C 	0.59410 0.38360 0.43680 0.32400
C 	C 	0.53420 0.44680 0.40202 -0.04300
C 	C 	0.57540 0.44580 0.35731 -0.05000
C 	C 	0.51860 0.50210 0.32600 0.01300
C 	C 	0.42020 0.56100 0.33790 -0.11000
C 	C 	0.37880 0.56110 0.38210 0.01300
C 	C 	0.43440 0.50440 0.41401 -0.05200
C 	C 	0.36170 0.62470 0.30410 0.40100
C 	C 	0.94000 0.27710 0.54610 0.11400
C 	C 	0.01210 0.32100 0.57850 -0.21700
C 	C 	0.01240 0.41560 0.58010 0.19700
C 	C 	0.92970 0.46120 0.54990 -0.21400
C 	C 	0.86050 0.41290 0.51858 0.11300
C 	C 	0.01160 0.59330 0.64817 0.22800
C 	C 	0.91710 0.54680 0.67220 -0.25900
C 	C 	0.84940 0.59700 0.70327 0.15900
C 	C 	0.95690 0.72560 0.68899 0.15900
C 	C 	0.02980 0.68490 0.65654 -0.26600
N 	N 	0.36350 0.82090 0.48454 -0.28600
N 	N 	0.58850 0.95880 0.38897 -0.18600
N 	N 	0.58490 0.05270 0.38518 -0.19300
N 	N 	0.36620 0.18360 0.28721 -0.29800
N 	N 	0.13650 0.67910 0.48454 -0.28600
N 	N 	0.91150 0.54120 0.38897 -0.18600
N 	N 	0.91510 0.44730 0.38518 -0.19300
N 	N 	0.13380 0.31640 0.28721 -0.29800
N 	N 	0.63650 0.82090 0.98454 -0.28600
N 	N 	0.41150 0.95880 0.88897 -0.18600
N 	N 	0.41510 0.05270 0.88518 -0.19300
N 	N 	0.63380 0.18360 0.78721 -0.29800
N 	N 	0.86350 0.67910 0.98454 -0.28600
N 	N 	0.08850 0.54120 0.88897 -0.18600
N 	N 	0.08490 0.44730 0.88518 -0.19300
N 	N 	0.86620 0.31640 0.78721 -0.29800
N 	N 	0.36350 0.17910 0.01546 -0.28600
N 	N 	0.58850 0.04120 0.11103 -0.18600
N 	N 	0.58490 0.94730 0.11482 -0.19300
N 	N 	0.36620 0.81640 0.21279 -0.29800
N 	N 	0.13650 0.32090 0.01546 -0.28600
N 	N 	0.91150 0.45880 0.11103 -0.18600
N 	N 	0.91510 0.55270 0.11482 -0.19300
N 	N 	0.13380 0.68360 0.21279 -0.29800
N 	N 	0.63650 0.17910 0.51546 -0.28600
N 	N 	0.41150 0.04120 0.61103 -0.18600
N 	N 	0.41510 0.94730 0.61482 -0.19300
N 	N 	0.63380 0.81640 0.71279 -0.29800
N 	N 	0.86350 0.32090 0.51546 -0.28600
N 	N 	0.08850 0.45880 0.61103 -0.18600
N 	N 	0.08490 0.55270 0.61482 -0.19300
N 	N 	0.86620 0.68360 0.71279 -0.29800
O 	O 	0.19320 0.84070 0.57474 -0.45800
O 	O 	0.04600 0.87970 0.52484 -0.31700
O 	O 	0.75050 0.14920 0.68980 -0.43500
O 	O 	0.91970 0.14730 0.72830 -0.40800
O 	O 	0.30680 0.65930 0.57474 -0.45800
O 	O 	0.45400 0.62030 0.52484 -0.31700
O 	O 	0.74950 0.35080 0.68980 -0.43500
O 	O 	0.58030 0.35270 0.72830 -0.40900
O 	O 	0.80680 0.84070 0.07474 -0.45800
O 	O 	0.95400 0.87970 0.02484 -0.31700
O 	O 	0.24950 0.14920 0.18980 -0.43500
O 	O 	0.08030 0.14730 0.22830 -0.40800
O 	O 	0.69320 0.65930 0.07474 -0.45800
O 	O 	0.54600 0.62030 0.02484 -0.31700
O 	O 	0.25050 0.35080 0.18980 -0.43500
O 	O 	0.41970 0.35270 0.22830 -0.40900
O 	O 	0.19320 0.15930 0.92526 -0.45800
O 	O 	0.04600 0.12030 0.97516 -0.31700
O 	O 	0.75050 0.85080 0.81020 -0.43500
O 	O 	0.91970 0.85270 0.77170 -0.40800
O 	O 	0.30680 0.34070 0.92526 -0.45800
O 	O 	0.45400 0.37970 0.97516 -0.31700
O 	O 	0.74950 0.64920 0.81020 -0.43500
O 	O 	0.58030 0.64730 0.77170 -0.40900
O 	O 	0.80680 0.15930 0.42526 -0.45800
O 	O 	0.95400 0.12030 0.47516 -0.31700
O 	O 	0.24950 0.85080 0.31020 -0.43500
O 	O 	0.08030 0.85270 0.27170 -0.40800
O 	O 	0.69320 0.34070 0.42526 -0.45800
O 	O 	0.54600 0.37970 0.47516 -0.31700
O 	O 	0.25050 0.64920 0.31020 -0.43500
O 	O 	0.41970 0.64730 0.27170 -0.40900
