data_crystal

_cell_length_a 16.12920
_cell_length_b 16.12920
_cell_length_c 16.12920
_cell_angle_alpha 92.54950
_cell_angle_beta  92.54950
_cell_angle_gamma 92.54950

_symmetry_space_group_name_	'P 1'
_symmetry_space_group_name_H-M	'P 1'

loop_
_symmetry_equiv_pos_as_xyz
  x,y,z

loop_
_atom_site_label
_atom_site_type_symbol
_atom_site_fract_x
_atom_site_fract_y
_atom_site_fract_z
_atom_site_charge
In	In	0.74044 0.16109 0.40989 2.00400
In	In	0.40989 0.74044 0.16109 2.00400
In	In	0.16109 0.40989 0.74044 2.00400
In	In	0.83891 0.25956 0.59011 2.00400
In	In	0.25956 0.59011 0.83891 2.00400
In	In	0.59011 0.83891 0.25956 2.00400
In	In	0.65936 0.34064 0.50000 1.97200
In	In	0.50000 0.65936 0.34064 1.97200
In	In	0.34064 0.50000 0.65936 1.97200
H 	H 	0.49080 0.02690 0.38830 -0.03300
H 	H 	0.35610 0.97750 0.35040 0.17300
H 	H 	0.28030 0.20820 0.35600 0.17800
H 	H 	0.41150 0.25690 0.40320 -0.06300
H 	H 	0.97320 0.12810 0.28420 -0.02100
H 	H 	0.09860 0.08390 0.23630 0.16000
H 	H 	0.19630 0.12760 0.47230 0.17000
H 	H 	0.07590 0.16800 0.51180 -0.04900
H 	H 	0.65570 0.23490 0.16510 -0.01500
H 	H 	0.60920 0.27990 0.03670 0.14700
H 	H 	0.59860 0.51170 0.13560 0.15700
H 	H 	0.63520 0.46660 0.26470 -0.03300
H 	H 	0.38830 0.49080 0.02690 -0.03300
H 	H 	0.35040 0.35610 0.97750 0.17300
H 	H 	0.35600 0.28030 0.20820 0.17800
H 	H 	0.40320 0.41150 0.25690 -0.06300
H 	H 	0.28420 0.97320 0.12810 -0.02100
H 	H 	0.23630 0.09860 0.08390 0.16000
H 	H 	0.47230 0.19630 0.12760 0.17000
H 	H 	0.51180 0.07590 0.16800 -0.04900
H 	H 	0.16510 0.65570 0.23490 -0.01500
H 	H 	0.03670 0.60920 0.27990 0.14700
H 	H 	0.13560 0.59860 0.51170 0.15700
H 	H 	0.26470 0.63520 0.46660 -0.03300
H 	H 	0.02690 0.38830 0.49080 -0.03300
H 	H 	0.97750 0.35040 0.35610 0.17300
H 	H 	0.20820 0.35600 0.28030 0.17800
H 	H 	0.25690 0.40320 0.41150 -0.06300
H 	H 	0.12810 0.28420 0.97320 -0.02100
H 	H 	0.08390 0.23630 0.09860 0.16000
H 	H 	0.12760 0.47230 0.19630 0.17000
H 	H 	0.16800 0.51180 0.07590 -0.04900
H 	H 	0.23490 0.16510 0.65570 -0.01500
H 	H 	0.27990 0.03670 0.60920 0.14700
H 	H 	0.51170 0.13560 0.59860 0.15700
H 	H 	0.46660 0.26470 0.63520 -0.03300
H 	H 	0.97310 0.50920 0.61170 -0.03400
H 	H 	0.02250 0.64390 0.64960 0.17500
H 	H 	0.79180 0.71970 0.64400 0.17900
H 	H 	0.74310 0.58850 0.59680 -0.06300
H 	H 	0.87190 0.02680 0.71580 -0.01900
H 	H 	0.91610 0.90140 0.76370 0.15900
H 	H 	0.87240 0.80370 0.52770 0.17000
H 	H 	0.83200 0.92410 0.48820 -0.04900
H 	H 	0.76510 0.34430 0.83490 -0.01500
H 	H 	0.72010 0.39080 0.96330 0.14700
H 	H 	0.48830 0.40140 0.86440 0.15700
H 	H 	0.53340 0.36480 0.73530 -0.03300
H 	H 	0.50920 0.61170 0.97310 -0.03400
H 	H 	0.64390 0.64960 0.02250 0.17500
H 	H 	0.71970 0.64400 0.79180 0.17900
H 	H 	0.58850 0.59680 0.74310 -0.06300
H 	H 	0.02680 0.71580 0.87190 -0.01900
H 	H 	0.90140 0.76370 0.91610 0.15900
H 	H 	0.80370 0.52770 0.87240 0.17000
H 	H 	0.92410 0.48820 0.83200 -0.04900
H 	H 	0.34430 0.83490 0.76510 -0.01500
H 	H 	0.39080 0.96330 0.72010 0.14700
H 	H 	0.40140 0.86440 0.48830 0.15700
H 	H 	0.36480 0.73530 0.53340 -0.03300
H 	H 	0.61170 0.97310 0.50920 -0.03400
H 	H 	0.64960 0.02250 0.64390 0.17500
H 	H 	0.64400 0.79180 0.71970 0.17900
H 	H 	0.59680 0.74310 0.58850 -0.06300
H 	H 	0.71580 0.87190 0.02680 -0.01900
H 	H 	0.76370 0.91610 0.90140 0.15900
H 	H 	0.52770 0.87240 0.80370 0.17000
H 	H 	0.48820 0.83200 0.92410 -0.04900
H 	H 	0.83490 0.76510 0.34430 -0.01500
H 	H 	0.96330 0.72010 0.39080 0.14700
H 	H 	0.86440 0.48830 0.40140 0.15700
H 	H 	0.73530 0.53340 0.36480 -0.03300
C 	C 	0.55120 0.17980 0.43000 0.48200
C 	C 	0.46570 0.14770 0.40000 -0.29000
C 	C 	0.44850 0.06390 0.38340 0.25000
C 	C 	0.36840 0.03410 0.35920 -0.36300
C 	C 	0.30800 0.09020 0.34880 0.39600
C 	C 	0.32250 0.17150 0.36370 -0.41500
C 	C 	0.40150 0.20040 0.39080 0.27100
C 	C 	0.93150 0.18380 0.43220 0.46400
C 	C 	0.01270 0.15250 0.40210 -0.27500
C 	C 	0.01930 0.12690 0.32090 0.22800
C 	C 	0.09340 0.09930 0.29210 -0.31900
C 	C 	0.15950 0.09510 0.34960 0.33000
C 	C 	0.15100 0.12590 0.43440 -0.37500
C 	C 	0.08110 0.15050 0.45660 0.28400
C 	C 	0.67740 0.31740 0.31050 0.45100
C 	C 	0.64850 0.34610 0.22820 -0.24500
C 	C 	0.64220 0.28990 0.15930 0.18800
C 	C 	0.61570 0.31680 0.08270 -0.30700
C 	C 	0.59890 0.40210 0.07630 0.32900
C 	C 	0.60800 0.45590 0.14210 -0.33300
C 	C 	0.63110 0.42930 0.21880 0.20900
C 	C 	0.43000 0.55120 0.17980 0.48200
C 	C 	0.40000 0.46570 0.14770 -0.29000
C 	C 	0.38340 0.44850 0.06390 0.25000
C 	C 	0.35920 0.36840 0.03410 -0.36300
C 	C 	0.34880 0.30800 0.09020 0.39600
C 	C 	0.36370 0.32250 0.17150 -0.41500
C 	C 	0.39080 0.40150 0.20040 0.27100
C 	C 	0.43220 0.93150 0.18380 0.46400
C 	C 	0.40210 0.01270 0.15250 -0.27500
C 	C 	0.32090 0.01930 0.12690 0.22800
C 	C 	0.29210 0.09340 0.09930 -0.31900
C 	C 	0.34960 0.15950 0.09510 0.33000
C 	C 	0.43440 0.15100 0.12590 -0.37500
C 	C 	0.45660 0.08110 0.15050 0.28400
C 	C 	0.31050 0.67740 0.31740 0.45100
C 	C 	0.22820 0.64850 0.34610 -0.24500
C 	C 	0.15930 0.64220 0.28990 0.18800
C 	C 	0.08270 0.61570 0.31680 -0.30700
C 	C 	0.07630 0.59890 0.40210 0.32900
C 	C 	0.14210 0.60800 0.45590 -0.33300
C 	C 	0.21880 0.63110 0.42930 0.20900
C 	C 	0.17980 0.43000 0.55120 0.48200
C 	C 	0.14770 0.40000 0.46570 -0.29000
C 	C 	0.06390 0.38340 0.44850 0.25000
C 	C 	0.03410 0.35920 0.36840 -0.36300
C 	C 	0.09020 0.34880 0.30800 0.39600
C 	C 	0.17150 0.36370 0.32250 -0.41500
C 	C 	0.20040 0.39080 0.40150 0.27100
C 	C 	0.18380 0.43220 0.93150 0.46400
C 	C 	0.15250 0.40210 0.01270 -0.27500
C 	C 	0.12690 0.32090 0.01930 0.22800
C 	C 	0.09930 0.29210 0.09340 -0.31900
C 	C 	0.09510 0.34960 0.15950 0.33000
C 	C 	0.12590 0.43440 0.15100 -0.37500
C 	C 	0.15050 0.45660 0.08110 0.28400
C 	C 	0.31740 0.31050 0.67740 0.45100
C 	C 	0.34610 0.22820 0.64850 -0.24500
C 	C 	0.28990 0.15930 0.64220 0.18800
C 	C 	0.31680 0.08270 0.61570 -0.30700
C 	C 	0.40210 0.07630 0.59890 0.32900
C 	C 	0.45590 0.14210 0.60800 -0.33300
C 	C 	0.42930 0.21880 0.63110 0.20900
C 	C 	0.82020 0.44880 0.57000 0.48200
C 	C 	0.85230 0.53430 0.60000 -0.29100
C 	C 	0.93610 0.55150 0.61660 0.25200
C 	C 	0.96590 0.63160 0.64080 -0.36600
C 	C 	0.90980 0.69200 0.65120 0.39800
C 	C 	0.82850 0.67750 0.63630 -0.41700
C 	C 	0.79960 0.59850 0.60920 0.27200
C 	C 	0.81620 0.06850 0.56780 0.46400
C 	C 	0.84750 0.98730 0.59790 -0.27500
C 	C 	0.87310 0.98070 0.67910 0.22600
C 	C 	0.90070 0.90660 0.70790 -0.31800
C 	C 	0.90490 0.84050 0.65040 0.32900
C 	C 	0.87410 0.84900 0.56560 -0.37500
C 	C 	0.84950 0.91890 0.54340 0.28300
C 	C 	0.68260 0.32260 0.68950 0.45100
C 	C 	0.65390 0.35150 0.77180 -0.24400
C 	C 	0.71010 0.35780 0.84070 0.18800
C 	C 	0.68320 0.38430 0.91730 -0.30700
C 	C 	0.59790 0.40110 0.92370 0.32900
C 	C 	0.54410 0.39200 0.85790 -0.33200
C 	C 	0.57070 0.36890 0.78120 0.20900
C 	C 	0.44880 0.57000 0.82020 0.48200
C 	C 	0.53430 0.60000 0.85230 -0.29100
C 	C 	0.55150 0.61660 0.93610 0.25200
C 	C 	0.63160 0.64080 0.96590 -0.36600
C 	C 	0.69200 0.65120 0.90980 0.39800
C 	C 	0.67750 0.63630 0.82850 -0.41700
C 	C 	0.59850 0.60920 0.79960 0.27200
C 	C 	0.06850 0.56780 0.81620 0.46400
C 	C 	0.98730 0.59790 0.84750 -0.27500
C 	C 	0.98070 0.67910 0.87310 0.22600
C 	C 	0.90660 0.70790 0.90070 -0.31800
C 	C 	0.84050 0.65040 0.90490 0.32900
C 	C 	0.84900 0.56560 0.87410 -0.37500
C 	C 	0.91890 0.54340 0.84950 0.28300
C 	C 	0.32260 0.68950 0.68260 0.45100
C 	C 	0.35150 0.77180 0.65390 -0.24400
C 	C 	0.35780 0.84070 0.71010 0.18800
C 	C 	0.38430 0.91730 0.68320 -0.30700
C 	C 	0.40110 0.92370 0.59790 0.32900
C 	C 	0.39200 0.85790 0.54410 -0.33200
C 	C 	0.36890 0.78120 0.57070 0.20900
C 	C 	0.57000 0.82020 0.44880 0.48200
C 	C 	0.60000 0.85230 0.53430 -0.29100
C 	C 	0.61660 0.93610 0.55150 0.25200
C 	C 	0.64080 0.96590 0.63160 -0.36600
C 	C 	0.65120 0.90980 0.69200 0.39800
C 	C 	0.63630 0.82850 0.67750 -0.41700
C 	C 	0.60920 0.79960 0.59850 0.27200
C 	C 	0.56780 0.81620 0.06850 0.46400
C 	C 	0.59790 0.84750 0.98730 -0.27500
C 	C 	0.67910 0.87310 0.98070 0.22600
C 	C 	0.70790 0.90070 0.90660 -0.31800
C 	C 	0.65040 0.90490 0.84050 0.32900
C 	C 	0.56560 0.87410 0.84900 -0.37500
C 	C 	0.54340 0.84950 0.91890 0.28300
C 	C 	0.68950 0.68260 0.32260 0.45100
C 	C 	0.77180 0.65390 0.35150 -0.24400
C 	C 	0.84070 0.71010 0.35780 0.18800
C 	C 	0.91730 0.68320 0.38430 -0.30700
C 	C 	0.92370 0.59790 0.40110 0.32900
C 	C 	0.85790 0.54410 0.39200 -0.33200
C 	C 	0.78120 0.57070 0.36890 0.20900
C 	C 	0.68305 -0.00000 0.31695 0.29800
C 	C 	0.31695 0.68305 -0.00000 0.29800
C 	C 	0.00000 0.31695 0.68305 0.29800
O 	O 	0.55640 0.25560 0.45280 -0.60300
O 	O 	0.60870 0.12830 0.42850 -0.55900
O 	O 	0.23010 0.05670 0.32130 -0.33100
O 	O 	0.93120 0.21690 0.50470 -0.55800
O 	O 	0.86900 0.17850 0.38000 -0.54200
O 	O 	0.67820 0.36990 0.37240 -0.58900
O 	O 	0.69910 0.24200 0.31350 -0.55300
O 	O 	0.73520 0.06160 0.31500 -0.45200
O 	O 	0.45280 0.55640 0.25560 -0.60300
O 	O 	0.42850 0.60870 0.12830 -0.55900
O 	O 	0.32130 0.23010 0.05670 -0.33100
O 	O 	0.50470 0.93120 0.21690 -0.55800
O 	O 	0.38000 0.86900 0.17850 -0.54200
O 	O 	0.37240 0.67820 0.36990 -0.58900
O 	O 	0.31350 0.69910 0.24200 -0.55300
O 	O 	0.31500 0.73520 0.06160 -0.45200
O 	O 	0.25560 0.45280 0.55640 -0.60300
O 	O 	0.12830 0.42850 0.60870 -0.55900
O 	O 	0.05670 0.32130 0.23010 -0.33100
O 	O 	0.21690 0.50470 0.93120 -0.55800
O 	O 	0.17850 0.38000 0.86900 -0.54200
O 	O 	0.36990 0.37240 0.67820 -0.58900
O 	O 	0.24200 0.31350 0.69910 -0.55300
O 	O 	0.06160 0.31500 0.73520 -0.45200
O 	O 	0.74440 0.44360 0.54720 -0.60300
O 	O 	0.87170 0.39130 0.57150 -0.55900
O 	O 	0.94330 0.76990 0.67870 -0.33200
O 	O 	0.78310 0.06880 0.49530 -0.55800
O 	O 	0.82150 0.13100 0.62000 -0.54200
O 	O 	0.63010 0.32180 0.62760 -0.58900
O 	O 	0.75800 0.30090 0.68650 -0.55300
O 	O 	0.93840 0.26480 0.68500 -0.45300
O 	O 	0.44360 0.54720 0.74440 -0.60300
O 	O 	0.39130 0.57150 0.87170 -0.55900
O 	O 	0.76990 0.67870 0.94330 -0.33200
O 	O 	0.06880 0.49530 0.78310 -0.55800
O 	O 	0.13100 0.62000 0.82150 -0.54200
O 	O 	0.32180 0.62760 0.63010 -0.58900
O 	O 	0.30090 0.68650 0.75800 -0.55300
O 	O 	0.26480 0.68500 0.93840 -0.45300
O 	O 	0.54720 0.74440 0.44360 -0.60300
O 	O 	0.57150 0.87170 0.39130 -0.55900
O 	O 	0.67870 0.94330 0.76990 -0.33200
O 	O 	0.49530 0.78310 0.06880 -0.55800
O 	O 	0.62000 0.82150 0.13100 -0.54200
O 	O 	0.62760 0.63010 0.32180 -0.58900
O 	O 	0.68650 0.75800 0.30090 -0.55300
O 	O 	0.68500 0.93840 0.26480 -0.45300
O 	O 	0.74820 0.25180 0.50000 -1.04700
O 	O 	0.50000 0.74820 0.25180 -1.04700
O 	O 	0.25180 0.50000 0.74820 -1.04700
O 	O 	0.56955 0.43045 -0.00000 -0.31800
O 	O 	0.00000 0.56955 0.43045 -0.31800
O 	O 	0.43045 0.00000 0.56955 -0.31800
