data_crystal

_cell_length_a 7.75300
_cell_length_b 10.45800
_cell_length_c 11.23860
_cell_angle_alpha 62.27230
_cell_angle_beta  85.33360
_cell_angle_gamma 79.92990

_symmetry_space_group_name_	'P 1'
_symmetry_space_group_name_H-M	'P 1'

loop_
_symmetry_equiv_pos_as_xyz
  x,y,z

loop_
_atom_site_label
_atom_site_type_symbol
_atom_site_fract_x
_atom_site_fract_y
_atom_site_fract_z
_atom_site_charge
Zn	Zn	0.11240 0.60011 -0.00000 1.16900
Zn	Zn	0.88760 0.39989 -0.00000 1.16900
H 	H 	0.77160 0.57270 0.57320 0.08200
H 	H 	0.89970 0.59220 0.37960 0.03000
H 	H 	0.49340 0.46930 0.27780 0.05400
H 	H 	0.22840 0.85410 0.57320 0.07500
H 	H 	0.10030 0.02820 0.37960 0.03400
H 	H 	0.50660 0.25290 0.27780 0.05700
H 	H 	0.22840 0.42730 0.42680 0.06800
H 	H 	0.10030 0.40780 0.62040 0.05600
H 	H 	0.50660 0.53070 0.72220 0.09100
H 	H 	0.77160 0.14590 0.42680 0.07500
H 	H 	0.89970 0.97180 0.62040 0.05100
H 	H 	0.49340 0.74710 0.72220 0.08800
H 	H 	0.03610 0.90320 -0.00000 -0.00500
H 	H 	0.19730 0.07150 -0.00000 0.04200
H 	H 	0.64620 0.80960 -0.00000 0.04600
H 	H 	0.48510 0.64130 -0.00000 -0.02000
H 	H 	0.96390 0.09680 -0.00000 -0.01400
H 	H 	0.80270 0.92850 -0.00000 0.06600
H 	H 	0.35380 0.19040 -0.00000 0.04600
H 	H 	0.51490 0.35870 -0.00000 -0.02000
C 	C 	0.53930 0.51600 0.54700 0.05600
C 	C 	0.71240 0.55370 0.51480 -0.10700
C 	C 	0.78920 0.56160 0.40100 0.04700
C 	C 	0.54760 0.49010 0.33720 -0.01600
C 	C 	0.71500 0.52700 0.31060 -0.10900
C 	C 	0.80700 0.52460 0.19080 0.39900
C 	C 	0.46070 0.93700 0.54700 0.05300
C 	C 	0.28760 0.93150 0.51480 -0.08400
C 	C 	0.21080 0.03740 0.40100 0.02200
C 	C 	0.45240 0.17270 0.33720 -0.02500
C 	C 	0.28500 0.16240 0.31060 -0.10000
C 	C 	0.19300 0.28460 0.19080 0.39500
C 	C 	0.46070 0.48400 0.45300 0.01900
C 	C 	0.28760 0.44630 0.48520 -0.07200
C 	C 	0.21080 0.43840 0.59900 0.01300
C 	C 	0.45240 0.50990 0.66280 -0.04500
C 	C 	0.28500 0.47300 0.68940 -0.05100
C 	C 	0.19300 0.47540 0.80920 0.37100
C 	C 	0.53930 0.06300 0.45300 0.02200
C 	C 	0.71240 0.06850 0.48520 -0.09800
C 	C 	0.78920 0.96260 0.59900 0.03900
C 	C 	0.54760 0.82730 0.66280 -0.03700
C 	C 	0.71500 0.83760 0.68940 -0.06000
C 	C 	0.80700 0.71540 0.80920 0.37500
C 	C 	0.15920 0.88430 -0.00000 0.02500
C 	C 	0.25530 0.98480 -0.00000 -0.10000
C 	C 	0.43730 0.95680 -0.00000 0.03000
C 	C 	0.52310 0.82850 -0.00000 -0.11400
C 	C 	0.42700 0.72810 -0.00000 0.01600
C 	C 	0.84080 0.11570 -0.00000 0.04000
C 	C 	0.74470 0.01520 -0.00000 -0.14000
C 	C 	0.56270 0.04320 -0.00000 0.03100
C 	C 	0.47690 0.17150 -0.00000 -0.11900
C 	C 	0.57300 0.27190 -0.00000 0.01800
N 	N 	0.24500 0.75600 -0.00000 -0.25600
N 	N 	0.75500 0.24400 -0.00000 -0.25900
O 	O 	0.93290 0.59520 0.14620 -0.48600
O 	O 	0.76080 0.45100 0.14060 -0.49400
O 	O 	0.06710 0.25860 0.14620 -0.48600
O 	O 	0.23920 0.40840 0.14060 -0.49300
O 	O 	0.06710 0.40480 0.85380 -0.36200
O 	O 	0.23920 0.54900 0.85940 -0.36800
O 	O 	0.93290 0.74140 0.85380 -0.36100
O 	O 	0.76080 0.59160 0.85940 -0.36900
