data_crystal

_cell_length_a 10.54820
_cell_length_b 23.14510
_cell_length_c 27.39760
_cell_angle_alpha 90.00000
_cell_angle_beta  90.00000
_cell_angle_gamma 90.00000

_symmetry_space_group_name_	'P 1'
_symmetry_space_group_name_H-M	'P 1'

loop_
_symmetry_equiv_pos_as_xyz
  x,y,z

loop_
_atom_site_label
_atom_site_type_symbol
_atom_site_fract_x
_atom_site_fract_y
_atom_site_fract_z
_atom_site_charge
Zn	Zn	0.41321 0.19572 0.95855 1.19600
Zn	Zn	0.56242 0.26938 0.04152 1.21000
Zn	Zn	0.24291 0.22913 0.04411 1.20700
Zn	Zn	0.91321 0.30428 0.04145 1.19600
Zn	Zn	0.06242 0.23062 0.95848 1.21000
Zn	Zn	0.74291 0.27087 0.95589 1.20700
Zn	Zn	0.58679 0.80428 0.45855 1.19700
Zn	Zn	0.43758 0.73062 0.54152 1.21100
Zn	Zn	0.75709 0.77087 0.54411 1.20800
Zn	Zn	0.08679 0.69572 0.54145 1.19700
Zn	Zn	0.93758 0.76938 0.45848 1.21100
Zn	Zn	0.25709 0.72913 0.45589 1.20800
Zn	Zn	0.58679 0.80428 0.04145 1.19700
Zn	Zn	0.43758 0.73062 0.95848 1.21100
Zn	Zn	0.75709 0.77087 0.95589 1.20800
Zn	Zn	0.08679 0.69572 0.95855 1.19700
Zn	Zn	0.93758 0.76938 0.04152 1.21100
Zn	Zn	0.25709 0.72913 0.04411 1.20800
Zn	Zn	0.41321 0.19572 0.54145 1.19700
Zn	Zn	0.56242 0.26938 0.45848 1.21100
Zn	Zn	0.24291 0.22913 0.45589 1.20800
Zn	Zn	0.91321 0.30428 0.45855 1.19700
Zn	Zn	0.06242 0.23062 0.54152 1.21100
Zn	Zn	0.74291 0.27087 0.54411 1.20800
H 	H 	0.50500 0.29600 0.95100 0.20800
H 	H 	0.04930 0.95620 0.08310 0.05100
H 	H 	0.27930 0.01800 0.94900 0.05400
H 	H 	0.56080 0.18760 0.12990 0.01800
H 	H 	0.20830 0.15290 0.12900 0.00700
H 	H 	0.09950 0.05270 0.07430 0.05600
H 	H 	0.41580 0.10870 0.87210 -0.00200
H 	H 	0.58800 0.35540 0.12780 0.00200
H 	H 	0.59180 0.35870 0.21220 0.07200
H 	H 	0.39440 0.27920 0.78730 0.07400
H 	H 	0.55750 0.18600 0.21330 0.07400
H 	H 	0.25410 0.31970 0.12900 -0.00500
H 	H 	0.42090 0.10510 0.78850 0.07100
H 	H 	0.39290 0.27720 0.87040 0.01000
H 	H 	0.20020 0.15130 0.21230 0.07400
H 	H 	0.25270 0.32210 0.21260 0.07100
H 	H 	0.00500 0.20400 0.04900 0.20900
H 	H 	0.54930 0.54380 0.91690 0.05100
H 	H 	0.77930 0.48200 0.05100 0.05400
H 	H 	0.06080 0.31240 0.87010 0.01800
H 	H 	0.70830 0.34710 0.87100 0.00700
H 	H 	0.59950 0.44730 0.92570 0.05600
H 	H 	0.91580 0.39130 0.12790 -0.00200
H 	H 	0.08800 0.14460 0.87220 0.00200
H 	H 	0.09180 0.14130 0.78780 0.07200
H 	H 	0.89440 0.22080 0.21270 0.07400
H 	H 	0.05750 0.31400 0.78670 0.07400
H 	H 	0.75410 0.18030 0.87100 -0.00500
H 	H 	0.92090 0.39490 0.21150 0.07100
H 	H 	0.89290 0.22280 0.12960 0.01000
H 	H 	0.70020 0.34870 0.78770 0.07400
H 	H 	0.75270 0.17790 0.78740 0.07100
H 	H 	0.49500 0.70400 0.45100 0.20800
H 	H 	0.95070 0.04380 0.58310 0.05100
H 	H 	0.72070 0.98200 0.44900 0.05400
H 	H 	0.43920 0.81240 0.62990 0.01800
H 	H 	0.79170 0.84710 0.62900 0.00700
H 	H 	0.90050 0.94730 0.57430 0.05600
H 	H 	0.58420 0.89130 0.37210 -0.00200
H 	H 	0.41200 0.64460 0.62780 0.00200
H 	H 	0.40820 0.64130 0.71220 0.07200
H 	H 	0.60560 0.72080 0.28730 0.07400
H 	H 	0.44250 0.81400 0.71330 0.07400
H 	H 	0.74590 0.68030 0.62900 -0.00500
H 	H 	0.57910 0.89490 0.28850 0.07100
H 	H 	0.60710 0.72280 0.37040 0.01000
H 	H 	0.79980 0.84870 0.71230 0.07400
H 	H 	0.74730 0.67790 0.71260 0.07100
H 	H 	0.99500 0.79600 0.54900 0.20800
H 	H 	0.45070 0.45620 0.41690 0.05100
H 	H 	0.22070 0.51800 0.55100 0.05400
H 	H 	0.93920 0.68760 0.37010 0.01800
H 	H 	0.29170 0.65290 0.37100 0.00700
H 	H 	0.40050 0.55270 0.42570 0.05600
H 	H 	0.08420 0.60870 0.62790 -0.00200
H 	H 	0.91200 0.85540 0.37220 0.00200
H 	H 	0.90820 0.85870 0.28780 0.07200
H 	H 	0.10560 0.77920 0.71270 0.07400
H 	H 	0.94250 0.68600 0.28670 0.07400
H 	H 	0.24590 0.81970 0.37100 -0.00500
H 	H 	0.07910 0.60510 0.71150 0.07100
H 	H 	0.10710 0.77720 0.62960 0.01000
H 	H 	0.29980 0.65130 0.28770 0.07400
H 	H 	0.24730 0.82210 0.28740 0.07100
H 	H 	0.49500 0.70400 0.04900 0.20800
H 	H 	0.95070 0.04380 0.91690 0.05100
H 	H 	0.72070 0.98200 0.05100 0.05400
H 	H 	0.43920 0.81240 0.87010 0.01800
H 	H 	0.79170 0.84710 0.87100 0.00700
H 	H 	0.90050 0.94730 0.92570 0.05600
H 	H 	0.58420 0.89130 0.12790 -0.00200
H 	H 	0.41200 0.64460 0.87220 0.00200
H 	H 	0.40820 0.64130 0.78780 0.07200
H 	H 	0.60560 0.72080 0.21270 0.07400
H 	H 	0.44250 0.81400 0.78670 0.07400
H 	H 	0.74590 0.68030 0.87100 -0.00500
H 	H 	0.57910 0.89490 0.21150 0.07100
H 	H 	0.60710 0.72280 0.12960 0.01000
H 	H 	0.79980 0.84870 0.78770 0.07400
H 	H 	0.74730 0.67790 0.78740 0.07100
H 	H 	0.99500 0.79600 0.95100 0.20900
H 	H 	0.45070 0.45620 0.08310 0.05100
H 	H 	0.22070 0.51800 0.94900 0.05400
H 	H 	0.93920 0.68760 0.12990 0.01800
H 	H 	0.29170 0.65290 0.12900 0.00700
H 	H 	0.40050 0.55270 0.07430 0.05600
H 	H 	0.08420 0.60870 0.87210 -0.00200
H 	H 	0.91200 0.85540 0.12780 0.00200
H 	H 	0.90820 0.85870 0.21220 0.07200
H 	H 	0.10560 0.77920 0.78730 0.07400
H 	H 	0.94250 0.68600 0.21330 0.07400
H 	H 	0.24590 0.81970 0.12900 -0.00500
H 	H 	0.07910 0.60510 0.78850 0.07100
H 	H 	0.10710 0.77720 0.87040 0.01000
H 	H 	0.29980 0.65130 0.21230 0.07400
H 	H 	0.24730 0.82210 0.21260 0.07100
H 	H 	0.50500 0.29600 0.54900 0.20800
H 	H 	0.04930 0.95620 0.41690 0.05100
H 	H 	0.27930 0.01800 0.55100 0.05400
H 	H 	0.56080 0.18760 0.37010 0.01800
H 	H 	0.20830 0.15290 0.37100 0.00700
H 	H 	0.09950 0.05270 0.42570 0.05600
H 	H 	0.41580 0.10870 0.62790 -0.00200
H 	H 	0.58800 0.35540 0.37220 0.00200
H 	H 	0.59180 0.35870 0.28780 0.07200
H 	H 	0.39440 0.27920 0.71270 0.07400
H 	H 	0.55750 0.18600 0.28670 0.07400
H 	H 	0.25410 0.31970 0.37100 -0.00500
H 	H 	0.42090 0.10510 0.71150 0.07100
H 	H 	0.39290 0.27720 0.62960 0.01000
H 	H 	0.20020 0.15130 0.28770 0.07400
H 	H 	0.25270 0.32210 0.28740 0.07100
H 	H 	0.00500 0.20400 0.45100 0.20800
H 	H 	0.54930 0.54380 0.58310 0.05100
H 	H 	0.77930 0.48200 0.44900 0.05400
H 	H 	0.06080 0.31240 0.62990 0.01800
H 	H 	0.70830 0.34710 0.62900 0.00700
H 	H 	0.59950 0.44730 0.57430 0.05600
H 	H 	0.91580 0.39130 0.37210 -0.00200
H 	H 	0.08800 0.14460 0.62780 0.00200
H 	H 	0.09180 0.14130 0.71220 0.07200
H 	H 	0.89440 0.22080 0.28730 0.07400
H 	H 	0.05750 0.31400 0.71330 0.07400
H 	H 	0.75410 0.18030 0.62900 -0.00500
H 	H 	0.92090 0.39490 0.28850 0.07100
H 	H 	0.89290 0.22280 0.37040 0.01000
H 	H 	0.70020 0.34870 0.71230 0.07400
H 	H 	0.75270 0.17790 0.71260 0.07100
C 	C 	0.11190 0.86470 0.03340 0.37500
C 	C 	0.19900 0.04460 0.01160 -0.07400
C 	C 	0.20380 0.94710 0.98070 -0.05300
C 	C 	0.40830 0.19210 0.77630 0.04700
C 	C 	0.13940 0.92730 0.02270 -0.05300
C 	C 	0.22950 0.23660 0.22320 0.05400
C 	C 	0.57540 0.27270 0.22340 0.05100
C 	C 	0.24100 0.10730 0.00750 0.37200
C 	C 	0.09820 0.96810 0.05630 -0.02600
C 	C 	0.23400 0.00520 0.97650 0.01200
C 	C 	0.56520 0.22290 0.14670 0.06400
C 	C 	0.21890 0.18780 0.14600 0.07500
C 	C 	0.12790 0.02590 0.05100 -0.00400
C 	C 	0.41200 0.14360 0.85470 0.06300
C 	C 	0.58180 0.32050 0.14520 0.07000
C 	C 	0.58420 0.32290 0.19630 -0.12000
C 	C 	0.39950 0.24350 0.80350 -0.11200
C 	C 	0.56490 0.22150 0.19690 -0.11500
C 	C 	0.24620 0.28470 0.14620 0.06800
C 	C 	0.41470 0.14110 0.80430 -0.11800
C 	C 	0.39830 0.24190 0.85360 0.06400
C 	C 	0.21410 0.18650 0.19620 -0.12600
C 	C 	0.24410 0.28650 0.19640 -0.12100
C 	C 	0.61190 0.63530 0.96660 0.37500
C 	C 	0.69900 0.45540 0.98840 -0.07400
C 	C 	0.70380 0.55290 0.01930 -0.05300
C 	C 	0.90830 0.30790 0.22370 0.04700
C 	C 	0.63940 0.57270 0.97730 -0.05300
C 	C 	0.72950 0.26340 0.77680 0.05300
C 	C 	0.07540 0.22730 0.77660 0.05100
C 	C 	0.74100 0.39270 0.99250 0.37200
C 	C 	0.59820 0.53190 0.94370 -0.02500
C 	C 	0.73400 0.49480 0.02350 0.01200
C 	C 	0.06520 0.27710 0.85330 0.06400
C 	C 	0.71890 0.31220 0.85400 0.07500
C 	C 	0.62790 0.47410 0.94900 -0.00500
C 	C 	0.91200 0.35640 0.14530 0.06300
C 	C 	0.08180 0.17950 0.85480 0.07000
C 	C 	0.08420 0.17710 0.80370 -0.12000
C 	C 	0.89950 0.25650 0.19650 -0.11300
C 	C 	0.06490 0.27850 0.80310 -0.11500
C 	C 	0.74620 0.21530 0.85380 0.06800
C 	C 	0.91470 0.35890 0.19570 -0.11800
C 	C 	0.89830 0.25810 0.14640 0.06400
C 	C 	0.71410 0.31350 0.80380 -0.12600
C 	C 	0.74410 0.21350 0.80360 -0.12100
C 	C 	0.88810 0.13530 0.53340 0.37500
C 	C 	0.80100 0.95540 0.51160 -0.07500
C 	C 	0.79620 0.05290 0.48070 -0.05400
C 	C 	0.59170 0.80790 0.27630 0.04700
C 	C 	0.86060 0.07270 0.52270 -0.05300
C 	C 	0.77050 0.76340 0.72320 0.05400
C 	C 	0.42460 0.72730 0.72340 0.05100
C 	C 	0.75900 0.89270 0.50750 0.37100
C 	C 	0.90180 0.03190 0.55630 -0.02600
C 	C 	0.76600 0.99480 0.47650 0.01300
C 	C 	0.43480 0.77710 0.64670 0.06400
C 	C 	0.78110 0.81220 0.64600 0.07500
C 	C 	0.87210 0.97410 0.55100 -0.00400
C 	C 	0.58800 0.85640 0.35470 0.06300
C 	C 	0.41820 0.67950 0.64520 0.07000
C 	C 	0.41580 0.67710 0.69630 -0.12000
C 	C 	0.60050 0.75650 0.30350 -0.11200
C 	C 	0.43510 0.77850 0.69690 -0.11500
C 	C 	0.75380 0.71530 0.64620 0.06800
C 	C 	0.58530 0.85890 0.30430 -0.11800
C 	C 	0.60170 0.75810 0.35360 0.06400
C 	C 	0.78590 0.81350 0.69620 -0.12600
C 	C 	0.75590 0.71350 0.69640 -0.12100
C 	C 	0.38810 0.36470 0.46660 0.37500
C 	C 	0.30100 0.54460 0.48840 -0.07400
C 	C 	0.29620 0.44710 0.51930 -0.05300
C 	C 	0.09170 0.69210 0.72370 0.04700
C 	C 	0.36060 0.42730 0.47730 -0.05400
C 	C 	0.27050 0.73660 0.27680 0.05300
C 	C 	0.92460 0.77270 0.27660 0.05100
C 	C 	0.25900 0.60730 0.49250 0.37100
C 	C 	0.40180 0.46810 0.44370 -0.02500
C 	C 	0.26600 0.50520 0.52350 0.01300
C 	C 	0.93480 0.72290 0.35330 0.06400
C 	C 	0.28110 0.68780 0.35400 0.07500
C 	C 	0.37210 0.52590 0.44900 -0.00500
C 	C 	0.08800 0.64360 0.64530 0.06300
C 	C 	0.91820 0.82050 0.35480 0.07000
C 	C 	0.91580 0.82290 0.30370 -0.12000
C 	C 	0.10050 0.74350 0.69650 -0.11300
C 	C 	0.93510 0.72150 0.30310 -0.11500
C 	C 	0.25380 0.78470 0.35380 0.06800
C 	C 	0.08530 0.64110 0.69570 -0.11800
C 	C 	0.10170 0.74190 0.64640 0.06400
C 	C 	0.28590 0.68650 0.30380 -0.12600
C 	C 	0.25590 0.78650 0.30360 -0.12100
C 	C 	0.88810 0.13530 0.96660 0.37500
C 	C 	0.80100 0.95540 0.98840 -0.07400
C 	C 	0.79620 0.05290 0.01930 -0.05300
C 	C 	0.59170 0.80790 0.22370 0.04700
C 	C 	0.86060 0.07270 0.97730 -0.05300
C 	C 	0.77050 0.76340 0.77680 0.05400
C 	C 	0.42460 0.72730 0.77660 0.05100
C 	C 	0.75900 0.89270 0.99250 0.37200
C 	C 	0.90180 0.03190 0.94370 -0.02600
C 	C 	0.76600 0.99480 0.02350 0.01200
C 	C 	0.43480 0.77710 0.85330 0.06400
C 	C 	0.78110 0.81220 0.85400 0.07500
C 	C 	0.87210 0.97410 0.94900 -0.00400
C 	C 	0.58800 0.85640 0.14530 0.06300
C 	C 	0.41820 0.67950 0.85480 0.07000
C 	C 	0.41580 0.67710 0.80370 -0.12000
C 	C 	0.60050 0.75650 0.19650 -0.11200
C 	C 	0.43510 0.77850 0.80310 -0.11500
C 	C 	0.75380 0.71530 0.85380 0.06800
C 	C 	0.58530 0.85890 0.19570 -0.11800
C 	C 	0.60170 0.75810 0.14640 0.06400
C 	C 	0.78590 0.81350 0.80380 -0.12600
C 	C 	0.75590 0.71350 0.80360 -0.12100
C 	C 	0.38810 0.36470 0.03340 0.37500
C 	C 	0.30100 0.54460 0.01160 -0.07400
C 	C 	0.29620 0.44710 0.98070 -0.05300
C 	C 	0.09170 0.69210 0.77630 0.04700
C 	C 	0.36060 0.42730 0.02270 -0.05300
C 	C 	0.27050 0.73660 0.22320 0.05300
C 	C 	0.92460 0.77270 0.22340 0.05100
C 	C 	0.25900 0.60730 0.00750 0.37200
C 	C 	0.40180 0.46810 0.05630 -0.02500
C 	C 	0.26600 0.50520 0.97650 0.01200
C 	C 	0.93480 0.72290 0.14670 0.06400
C 	C 	0.28110 0.68780 0.14600 0.07500
C 	C 	0.37210 0.52590 0.05100 -0.00500
C 	C 	0.08800 0.64360 0.85470 0.06300
C 	C 	0.91820 0.82050 0.14520 0.07000
C 	C 	0.91580 0.82290 0.19630 -0.12000
C 	C 	0.10050 0.74350 0.80350 -0.11300
C 	C 	0.93510 0.72150 0.19690 -0.11500
C 	C 	0.25380 0.78470 0.14620 0.06800
C 	C 	0.08530 0.64110 0.80430 -0.11800
C 	C 	0.10170 0.74190 0.85360 0.06400
C 	C 	0.28590 0.68650 0.19620 -0.12600
C 	C 	0.25590 0.78650 0.19640 -0.12100
C 	C 	0.11190 0.86470 0.46660 0.37500
C 	C 	0.19900 0.04460 0.48840 -0.07500
C 	C 	0.20380 0.94710 0.51930 -0.05400
C 	C 	0.40830 0.19210 0.72370 0.04700
C 	C 	0.13940 0.92730 0.47730 -0.05300
C 	C 	0.22950 0.23660 0.27680 0.05400
C 	C 	0.57540 0.27270 0.27660 0.05100
C 	C 	0.24100 0.10730 0.49250 0.37100
C 	C 	0.09820 0.96810 0.44370 -0.02600
C 	C 	0.23400 0.00520 0.52350 0.01300
C 	C 	0.56520 0.22290 0.35330 0.06400
C 	C 	0.21890 0.18780 0.35400 0.07500
C 	C 	0.12790 0.02590 0.44900 -0.00400
C 	C 	0.41200 0.14360 0.64530 0.06300
C 	C 	0.58180 0.32050 0.35480 0.07000
C 	C 	0.58420 0.32290 0.30370 -0.12000
C 	C 	0.39950 0.24350 0.69650 -0.11200
C 	C 	0.56490 0.22150 0.30310 -0.11500
C 	C 	0.24620 0.28470 0.35380 0.06800
C 	C 	0.41470 0.14110 0.69570 -0.11800
C 	C 	0.39830 0.24190 0.64640 0.06400
C 	C 	0.21410 0.18650 0.30380 -0.12600
C 	C 	0.24410 0.28650 0.30360 -0.12100
C 	C 	0.61190 0.63530 0.53340 0.37500
C 	C 	0.69900 0.45540 0.51160 -0.07400
C 	C 	0.70380 0.55290 0.48070 -0.05300
C 	C 	0.90830 0.30790 0.27630 0.04700
C 	C 	0.63940 0.57270 0.52270 -0.05400
C 	C 	0.72950 0.26340 0.72320 0.05300
C 	C 	0.07540 0.22730 0.72340 0.05100
C 	C 	0.74100 0.39270 0.50750 0.37100
C 	C 	0.59820 0.53190 0.55630 -0.02500
C 	C 	0.73400 0.49480 0.47650 0.01300
C 	C 	0.06520 0.27710 0.64670 0.06400
C 	C 	0.71890 0.31220 0.64600 0.07500
C 	C 	0.62790 0.47410 0.55100 -0.00500
C 	C 	0.91200 0.35640 0.35470 0.06300
C 	C 	0.08180 0.17950 0.64520 0.07000
C 	C 	0.08420 0.17710 0.69630 -0.12000
C 	C 	0.89950 0.25650 0.30350 -0.11300
C 	C 	0.06490 0.27850 0.69690 -0.11500
C 	C 	0.74620 0.21530 0.64620 0.06800
C 	C 	0.91470 0.35890 0.30430 -0.11800
C 	C 	0.89830 0.25810 0.35360 0.06400
C 	C 	0.71410 0.31350 0.69620 -0.12600
C 	C 	0.74410 0.21350 0.69640 -0.12100
S 	S 	0.24720 0.90010 0.93232 0.47600
S 	S 	0.74720 0.59990 0.06768 0.47600
S 	S 	0.75280 0.09990 0.43232 0.47600
S 	S 	0.25280 0.40010 0.56768 0.47600
S 	S 	0.75280 0.09990 0.06768 0.47600
S 	S 	0.25280 0.40010 0.93232 0.47600
S 	S 	0.24720 0.90010 0.56768 0.47600
S 	S 	0.74720 0.59990 0.43232 0.47600
N 	N 	0.23750 0.23540 0.12060 -0.25000
N 	N 	0.40430 0.19320 0.88040 -0.24700
N 	N 	0.57150 0.27190 0.12010 -0.23900
N 	N 	0.73750 0.26460 0.87940 -0.25000
N 	N 	0.90430 0.30680 0.11960 -0.24700
N 	N 	0.07150 0.22810 0.87990 -0.23900
N 	N 	0.76250 0.76460 0.62060 -0.25000
N 	N 	0.59570 0.80680 0.38040 -0.24700
N 	N 	0.42850 0.72810 0.62010 -0.23900
N 	N 	0.26250 0.73540 0.37940 -0.25000
N 	N 	0.09570 0.69320 0.61960 -0.24700
N 	N 	0.92850 0.77190 0.37990 -0.23900
N 	N 	0.76250 0.76460 0.87940 -0.25000
N 	N 	0.59570 0.80680 0.11960 -0.24700
N 	N 	0.42850 0.72810 0.87990 -0.23900
N 	N 	0.26250 0.73540 0.12060 -0.25000
N 	N 	0.09570 0.69320 0.88040 -0.24700
N 	N 	0.92850 0.77190 0.12010 -0.23900
N 	N 	0.23750 0.23540 0.37940 -0.25000
N 	N 	0.40430 0.19320 0.61960 -0.24700
N 	N 	0.57150 0.27190 0.37990 -0.23900
N 	N 	0.73750 0.26460 0.62060 -0.25000
N 	N 	0.90430 0.30680 0.38040 -0.24700
N 	N 	0.07150 0.22810 0.62010 -0.23900
O 	O 	0.43200 0.20820 0.03793 -0.62100
O 	O 	0.24630 0.24330 0.96909 -0.64000
O 	O 	0.20970 0.13980 0.04253 -0.44200
O 	O 	0.99690 0.85140 0.03727 -0.46800
O 	O 	0.20260 0.83120 0.04066 -0.42200
O 	O 	0.30390 0.12090 0.97017 -0.46200
O 	O 	0.54790 0.26120 0.96160 -0.73200
O 	O 	0.24510 0.93560 0.88850 -0.24600
O 	O 	0.37490 0.87950 0.94280 -0.27000
O 	O 	0.15440 0.85430 0.93160 -0.27900
O 	O 	0.93200 0.29180 0.96207 -0.62100
O 	O 	0.74630 0.25670 0.03091 -0.64000
O 	O 	0.70970 0.36020 0.95747 -0.44200
O 	O 	0.49690 0.64860 0.96273 -0.46800
O 	O 	0.70260 0.66880 0.95934 -0.42200
O 	O 	0.80390 0.37910 0.02983 -0.46200
O 	O 	0.04790 0.23880 0.03840 -0.73200
O 	O 	0.74510 0.56440 0.11150 -0.24600
O 	O 	0.87490 0.62050 0.05720 -0.27000
O 	O 	0.65440 0.64570 0.06840 -0.27900
O 	O 	0.56800 0.79180 0.53793 -0.62100
O 	O 	0.75370 0.75670 0.46909 -0.63900
O 	O 	0.79030 0.86020 0.54253 -0.44200
O 	O 	0.00310 0.14860 0.53727 -0.46800
O 	O 	0.79740 0.16880 0.54066 -0.42200
O 	O 	0.69610 0.87910 0.47017 -0.46200
O 	O 	0.45210 0.73880 0.46160 -0.73200
O 	O 	0.75490 0.06440 0.38850 -0.24600
O 	O 	0.62510 0.12050 0.44280 -0.27000
O 	O 	0.84560 0.14570 0.43160 -0.27900
O 	O 	0.06800 0.70820 0.46207 -0.62100
O 	O 	0.25370 0.74330 0.53091 -0.64000
O 	O 	0.29030 0.63980 0.45747 -0.44200
O 	O 	0.50310 0.35140 0.46273 -0.46800
O 	O 	0.29740 0.33120 0.45934 -0.42200
O 	O 	0.19610 0.62090 0.52983 -0.46200
O 	O 	0.95210 0.76120 0.53840 -0.73200
O 	O 	0.25490 0.43560 0.61150 -0.24600
O 	O 	0.12510 0.37950 0.55720 -0.27000
O 	O 	0.34560 0.35430 0.56840 -0.27900
O 	O 	0.56800 0.79180 0.96207 -0.62100
O 	O 	0.75370 0.75670 0.03091 -0.64000
O 	O 	0.79030 0.86020 0.95747 -0.44200
O 	O 	0.00310 0.14860 0.96273 -0.46800
O 	O 	0.79740 0.16880 0.95934 -0.42200
O 	O 	0.69610 0.87910 0.02983 -0.46200
O 	O 	0.45210 0.73880 0.03840 -0.73200
O 	O 	0.75490 0.06440 0.11150 -0.24600
O 	O 	0.62510 0.12050 0.05720 -0.27000
O 	O 	0.84560 0.14570 0.06840 -0.27900
O 	O 	0.06800 0.70820 0.03793 -0.62100
O 	O 	0.25370 0.74330 0.96909 -0.64000
O 	O 	0.29030 0.63980 0.04253 -0.44200
O 	O 	0.50310 0.35140 0.03727 -0.46800
O 	O 	0.29740 0.33120 0.04066 -0.42200
O 	O 	0.19610 0.62090 0.97017 -0.46200
O 	O 	0.95210 0.76120 0.96160 -0.73200
O 	O 	0.25490 0.43560 0.88850 -0.24600
O 	O 	0.12510 0.37950 0.94280 -0.27000
O 	O 	0.34560 0.35430 0.93160 -0.27900
O 	O 	0.43200 0.20820 0.46207 -0.62100
O 	O 	0.24630 0.24330 0.53091 -0.63900
O 	O 	0.20970 0.13980 0.45747 -0.44200
O 	O 	0.99690 0.85140 0.46273 -0.46800
O 	O 	0.20260 0.83120 0.45934 -0.42200
O 	O 	0.30390 0.12090 0.52983 -0.46200
O 	O 	0.54790 0.26120 0.53840 -0.73200
O 	O 	0.24510 0.93560 0.61150 -0.24600
O 	O 	0.37490 0.87950 0.55720 -0.27000
O 	O 	0.15440 0.85430 0.56840 -0.27900
O 	O 	0.93200 0.29180 0.53793 -0.62100
O 	O 	0.74630 0.25670 0.46909 -0.64000
O 	O 	0.70970 0.36020 0.54253 -0.44200
O 	O 	0.49690 0.64860 0.53727 -0.46800
O 	O 	0.70260 0.66880 0.54066 -0.42200
O 	O 	0.80390 0.37910 0.47017 -0.46200
O 	O 	0.04790 0.23880 0.46160 -0.73200
O 	O 	0.74510 0.56440 0.38850 -0.24600
O 	O 	0.87490 0.62050 0.44280 -0.27000
O 	O 	0.65440 0.64570 0.43160 -0.27900
