data_crystal

_cell_length_a 7.54170
_cell_length_b 17.88500
_cell_length_c 23.76400
_cell_angle_alpha 92.49800
_cell_angle_beta  90.00000
_cell_angle_gamma 90.00000

_symmetry_space_group_name_	'P 1'
_symmetry_space_group_name_H-M	'P 1'

loop_
_symmetry_equiv_pos_as_xyz
  x,y,z

loop_
_atom_site_label
_atom_site_type_symbol
_atom_site_fract_x
_atom_site_fract_y
_atom_site_fract_z
_atom_site_charge
Zn	Zn	0.97385 0.92156 0.96861 1.19200
Zn	Zn	0.29444 0.99051 0.91267 1.22600
Zn	Zn	0.97385 0.57844 0.53139 1.19400
Zn	Zn	0.29444 0.50949 0.58733 1.22700
Zn	Zn	0.02615 0.07844 0.03139 1.19300
Zn	Zn	0.70556 0.00949 0.08733 1.22700
Zn	Zn	0.02615 0.42156 0.46861 1.19400
Zn	Zn	0.70556 0.49051 0.41267 1.22700
H 	H 	0.49500 0.90990 0.73120 0.16600
H 	H 	0.74300 0.17620 0.72880 0.23100
H 	H 	0.73970 0.82610 0.64010 0.16700
H 	H 	0.06540 0.00490 0.75850 0.07100
H 	H 	0.93370 0.00930 0.67000 0.26400
H 	H 	0.07700 0.21250 0.86050 0.22600
H 	H 	0.16300 0.79830 0.57190 0.02800
H 	H 	0.55510 0.10890 0.78560 0.07600
H 	H 	0.88720 0.14670 0.91720 -0.04800
H 	H 	0.62420 0.90930 0.81990 -0.00300
H 	H 	0.62940 0.70720 0.61770 -0.01100
H 	H 	0.27620 0.91760 0.59180 0.26100
H 	H 	0.49500 0.59010 0.76880 0.16500
H 	H 	0.74300 0.32380 0.77120 0.23100
H 	H 	0.73970 0.67390 0.85990 0.16700
H 	H 	0.06540 0.49510 0.74150 0.07000
H 	H 	0.93370 0.49070 0.83000 0.26000
H 	H 	0.07700 0.28750 0.63950 0.22500
H 	H 	0.16300 0.70170 0.92810 0.02800
H 	H 	0.55510 0.39110 0.71440 0.07600
H 	H 	0.88720 0.35330 0.58280 -0.04800
H 	H 	0.62420 0.59070 0.68010 -0.00300
H 	H 	0.62940 0.79280 0.88230 -0.01100
H 	H 	0.27620 0.58240 0.90820 0.26100
H 	H 	0.50500 0.09010 0.26880 0.16600
H 	H 	0.25700 0.82380 0.27120 0.23100
H 	H 	0.26030 0.17390 0.35990 0.16700
H 	H 	0.93460 0.99510 0.24150 0.07100
H 	H 	0.06630 0.99070 0.33000 0.26400
H 	H 	0.92300 0.78750 0.13950 0.22600
H 	H 	0.83700 0.20170 0.42810 0.02800
H 	H 	0.44490 0.89110 0.21440 0.07600
H 	H 	0.11280 0.85330 0.08280 -0.04800
H 	H 	0.37580 0.09070 0.18010 -0.00300
H 	H 	0.37060 0.29280 0.38230 -0.01100
H 	H 	0.72380 0.08240 0.40820 0.26100
H 	H 	0.50500 0.40990 0.23120 0.16500
H 	H 	0.25700 0.67620 0.22880 0.23100
H 	H 	0.26030 0.32610 0.14010 0.16700
H 	H 	0.93460 0.50490 0.25850 0.07000
H 	H 	0.06630 0.50930 0.17000 0.26000
H 	H 	0.92300 0.71250 0.36050 0.22500
H 	H 	0.83700 0.29830 0.07190 0.02800
H 	H 	0.44490 0.60890 0.28560 0.07600
H 	H 	0.11280 0.64670 0.41720 -0.04800
H 	H 	0.37580 0.40930 0.31990 -0.00300
H 	H 	0.37060 0.20720 0.11770 -0.01100
H 	H 	0.72380 0.41760 0.09180 0.26100
C 	C 	0.30860 0.66409 0.58051 0.43700
C 	C 	0.61080 0.92980 0.73673 -0.27600
C 	C 	0.92560 0.20415 0.78948 0.38700
C 	C 	0.77150 0.17115 0.76740 -0.27700
C 	C 	0.69940 0.12328 0.85752 -0.18700
C 	C 	0.94510 0.95721 0.85424 0.42200
C 	C 	0.60300 0.96104 0.63424 -0.49300
C 	C 	0.51870 0.88390 0.61899 0.37700
C 	C 	0.70100 0.95960 0.69138 0.35600
C 	C 	0.85790 0.95706 0.79751 -0.20200
C 	C 	0.62220 0.82057 0.62606 -0.28700
C 	C 	0.94860 0.98614 0.75291 0.17000
C 	C 	0.46250 0.02466 0.64050 0.96600
C 	C 	0.87100 0.98826 0.70020 -0.27200
C 	C 	0.96920 0.19290 0.84541 -0.29700
C 	C 	0.16250 0.30663 0.78268 0.97200
C 	C 	0.28080 0.80396 0.58562 0.21100
C 	C 	0.65970 0.13113 0.80119 0.20300
C 	C 	0.72740 0.97944 0.58494 0.96000
C 	C 	0.85680 0.15341 0.87895 0.21800
C 	C 	0.57440 0.08264 0.89454 0.38400
C 	C 	0.68750 0.92898 0.78935 0.17400
C 	C 	0.55660 0.74986 0.61305 0.19200
C 	C 	0.34740 0.87493 0.59784 -0.27800
C 	C 	0.38410 0.74080 0.59310 -0.20900
C 	C 	0.30860 0.83591 0.91949 0.43700
C 	C 	0.61080 0.57020 0.76327 -0.27600
C 	C 	0.92560 0.29585 0.71052 0.38700
C 	C 	0.77150 0.32885 0.73260 -0.27700
C 	C 	0.69940 0.37672 0.64248 -0.18700
C 	C 	0.94510 0.54279 0.64576 0.42600
C 	C 	0.60300 0.53896 0.86576 -0.49200
C 	C 	0.51870 0.61610 0.88101 0.37600
C 	C 	0.70100 0.54040 0.80862 0.35500
C 	C 	0.85790 0.54294 0.70249 -0.20200
C 	C 	0.62220 0.67943 0.87394 -0.28600
C 	C 	0.94860 0.51386 0.74709 0.17200
C 	C 	0.46250 0.47534 0.85950 0.96500
C 	C 	0.87100 0.51174 0.79980 -0.26700
C 	C 	0.96920 0.30710 0.65459 -0.29500
C 	C 	0.16250 0.19337 0.71732 0.97200
C 	C 	0.28080 0.69604 0.91438 0.21100
C 	C 	0.65970 0.36887 0.69881 0.20300
C 	C 	0.72740 0.52056 0.91506 0.96100
C 	C 	0.85680 0.34659 0.62105 0.21700
C 	C 	0.57440 0.41736 0.60546 0.38400
C 	C 	0.68750 0.57102 0.71065 0.17500
C 	C 	0.55660 0.75014 0.88695 0.19200
C 	C 	0.34740 0.62507 0.90216 -0.27800
C 	C 	0.38410 0.75920 0.90690 -0.20900
C 	C 	0.69140 0.33591 0.41949 0.43700
C 	C 	0.38920 0.07020 0.26327 -0.27600
C 	C 	0.07440 0.79585 0.21052 0.38700
C 	C 	0.22850 0.82885 0.23260 -0.27700
C 	C 	0.30060 0.87672 0.14248 -0.18700
C 	C 	0.05490 0.04279 0.14576 0.42200
C 	C 	0.39700 0.03896 0.36576 -0.49300
C 	C 	0.48130 0.11610 0.38101 0.37700
C 	C 	0.29900 0.04040 0.30862 0.35600
C 	C 	0.14210 0.04294 0.20249 -0.20200
C 	C 	0.37780 0.17943 0.37394 -0.28700
C 	C 	0.05140 0.01386 0.24709 0.17000
C 	C 	0.53750 0.97534 0.35950 0.96600
C 	C 	0.12900 0.01174 0.29980 -0.27200
C 	C 	0.03080 0.80710 0.15459 -0.29700
C 	C 	0.83750 0.69337 0.21732 0.97200
C 	C 	0.71920 0.19604 0.41438 0.21100
C 	C 	0.34030 0.86887 0.19881 0.20300
C 	C 	0.27260 0.02056 0.41506 0.96000
C 	C 	0.14320 0.84659 0.12105 0.21800
C 	C 	0.42560 0.91736 0.10546 0.38400
C 	C 	0.31250 0.07102 0.21065 0.17400
C 	C 	0.44340 0.25014 0.38695 0.19200
C 	C 	0.65260 0.12507 0.40216 -0.27800
C 	C 	0.61590 0.25920 0.40690 -0.20900
C 	C 	0.69140 0.16409 0.08051 0.43700
C 	C 	0.38920 0.42980 0.23673 -0.27600
C 	C 	0.07440 0.70415 0.28948 0.38700
C 	C 	0.22850 0.67115 0.26740 -0.27700
C 	C 	0.30060 0.62328 0.35752 -0.18700
C 	C 	0.05490 0.45721 0.35424 0.42600
C 	C 	0.39700 0.46104 0.13424 -0.49200
C 	C 	0.48130 0.38390 0.11899 0.37600
C 	C 	0.29900 0.45960 0.19138 0.35500
C 	C 	0.14210 0.45706 0.29751 -0.20200
C 	C 	0.37780 0.32057 0.12606 -0.28600
C 	C 	0.05140 0.48614 0.25291 0.17200
C 	C 	0.53750 0.52466 0.14050 0.96500
C 	C 	0.12900 0.48826 0.20020 -0.26700
C 	C 	0.03080 0.69290 0.34541 -0.29500
C 	C 	0.83750 0.80663 0.28268 0.97200
C 	C 	0.71920 0.30396 0.08562 0.21100
C 	C 	0.34030 0.63113 0.30119 0.20300
C 	C 	0.27260 0.47944 0.08494 0.96100
C 	C 	0.14320 0.65341 0.37895 0.21700
C 	C 	0.42560 0.58264 0.39454 0.38400
C 	C 	0.31250 0.42898 0.28935 0.17500
C 	C 	0.44340 0.24986 0.11305 0.19200
C 	C 	0.65260 0.37493 0.09784 -0.27800
C 	C 	0.61590 0.24080 0.09310 -0.20900
C 	C 	0.04170 0.25000 0.75000 -0.51000
C 	C 	0.95830 0.75000 0.25000 -0.51000
O 	O 	0.43040 0.06046 0.87148 -0.42200
O 	O 	0.15420 0.66049 0.56140 -0.47200
O 	O 	0.85900 0.93212 0.89463 -0.48700
O 	O 	0.61030 0.07438 0.94489 -0.32600
O 	O 	0.09990 0.98246 0.85715 -0.48100
O 	O 	0.40620 0.60904 0.59075 -0.47100
O 	O 	0.17440 0.99690 0.98628 -0.66600
O 	O 	0.43040 0.43954 0.62852 -0.42300
O 	O 	0.15420 0.83951 0.93860 -0.47200
O 	O 	0.85900 0.56788 0.60537 -0.48600
O 	O 	0.61030 0.42562 0.55511 -0.32700
O 	O 	0.09990 0.51754 0.64285 -0.48300
O 	O 	0.40620 0.89096 0.90925 -0.47100
O 	O 	0.17440 0.50310 0.51372 -0.66700
O 	O 	0.56960 0.93954 0.12852 -0.42200
O 	O 	0.84580 0.33951 0.43860 -0.47200
O 	O 	0.14100 0.06788 0.10537 -0.48700
O 	O 	0.38970 0.92562 0.05511 -0.32600
O 	O 	0.90010 0.01754 0.14285 -0.48100
O 	O 	0.59380 0.39096 0.40925 -0.47100
O 	O 	0.82560 0.00310 0.01372 -0.66600
O 	O 	0.56960 0.56046 0.37148 -0.42300
O 	O 	0.84580 0.16049 0.06140 -0.47200
O 	O 	0.14100 0.43212 0.39463 -0.48600
O 	O 	0.38970 0.57438 0.44489 -0.32700
O 	O 	0.90010 0.48246 0.35715 -0.48300
O 	O 	0.59380 0.10904 0.09075 -0.47100
O 	O 	0.82560 0.49690 0.48628 -0.66700
F 	F 	0.23760 0.35488 0.74843 -0.45500
F 	F 	0.29540 0.27480 0.81036 -0.43900
F 	F 	0.86970 0.93495 0.58276 -0.47700
F 	F 	0.78760 0.05019 0.58789 -0.41000
F 	F 	0.06960 0.34766 0.82086 -0.45000
F 	F 	0.53470 0.08819 0.66168 -0.42800
F 	F 	0.33080 0.00690 0.67481 -0.48100
F 	F 	0.64570 0.97015 0.53516 -0.38700
F 	F 	0.38810 0.04121 0.59121 -0.39200
F 	F 	0.23760 0.14512 0.75157 -0.45500
F 	F 	0.29540 0.22520 0.68964 -0.43900
F 	F 	0.86970 0.56505 0.91724 -0.47700
F 	F 	0.78760 0.44981 0.91211 -0.41100
F 	F 	0.06960 0.15234 0.67914 -0.45100
F 	F 	0.53470 0.41181 0.83832 -0.42900
F 	F 	0.33080 0.49310 0.82519 -0.48100
F 	F 	0.64570 0.52985 0.96484 -0.38700
F 	F 	0.38810 0.45879 0.90879 -0.39100
F 	F 	0.76240 0.64512 0.25157 -0.45500
F 	F 	0.70460 0.72520 0.18964 -0.43900
F 	F 	0.13030 0.06505 0.41724 -0.47700
F 	F 	0.21240 0.94981 0.41211 -0.41000
F 	F 	0.93040 0.65234 0.17914 -0.45000
F 	F 	0.46530 0.91181 0.33832 -0.42800
F 	F 	0.66920 0.99310 0.32519 -0.48100
F 	F 	0.35430 0.02985 0.46484 -0.38700
F 	F 	0.61190 0.95879 0.40879 -0.39200
F 	F 	0.76240 0.85488 0.24843 -0.45500
F 	F 	0.70460 0.77480 0.31036 -0.43900
F 	F 	0.13030 0.43495 0.08276 -0.47700
F 	F 	0.21240 0.55019 0.08789 -0.41100
F 	F 	0.93040 0.84766 0.32086 -0.45100
F 	F 	0.46530 0.58819 0.16168 -0.42900
F 	F 	0.66920 0.50690 0.17481 -0.48100
F 	F 	0.35430 0.47015 0.03516 -0.38700
F 	F 	0.61190 0.54121 0.09121 -0.39100
