data_crystal

_cell_length_a 9.86800
_cell_length_b 18.14000
_cell_length_c 18.24760
_cell_angle_alpha 90.00000
_cell_angle_beta  90.00000
_cell_angle_gamma 90.00000

_symmetry_space_group_name_	'P 1'
_symmetry_space_group_name_H-M	'P 1'

loop_
_symmetry_equiv_pos_as_xyz
  x,y,z

loop_
_atom_site_label
_atom_site_type_symbol
_atom_site_fract_x
_atom_site_fract_y
_atom_site_fract_z
_atom_site_charge
Zn	Zn	0.92253 0.93778 0.67870 1.29500
Zn	Zn	0.10991 0.03585 0.78477 1.22900
Zn	Zn	0.57747 0.43778 0.82129 1.24600
Zn	Zn	0.39009 0.53585 0.71522 1.25100
Zn	Zn	0.07747 0.56222 0.67870 1.20300
Zn	Zn	0.89009 0.46415 0.78477 1.26800
Zn	Zn	0.42253 0.06222 0.82129 1.24000
Zn	Zn	0.60991 0.96415 0.71522 1.25900
Zn	Zn	0.07747 0.06222 0.32129 1.19600
Zn	Zn	0.89009 0.96415 0.21522 1.27400
Zn	Zn	0.42253 0.56222 0.17870 1.24600
Zn	Zn	0.60991 0.46415 0.28477 1.25100
Zn	Zn	0.92253 0.43778 0.32129 1.28900
Zn	Zn	0.10991 0.53585 0.21522 1.23500
Zn	Zn	0.57747 0.93778 0.17870 1.25200
Zn	Zn	0.39009 0.03585 0.28477 1.24400
Zn	Zn	0.00000 0.75000 0.68882 1.21600
Zn	Zn	0.50000 0.25000 0.81118 1.25900
Zn	Zn	0.00000 0.25000 0.31118 1.21500
Zn	Zn	0.50000 0.75000 0.18882 1.25800
Zn	Zn	0.00000 -0.00000 0.50000 1.19500
Zn	Zn	0.50000 0.50000 -0.00000 1.22700
Zn	Zn	0.00000 0.50000 0.50000 1.21600
Zn	Zn	0.50000 0.00000 -0.00000 1.20700
H 	H 	0.15100 0.86660 0.53380 -0.19500
H 	H 	0.20000 0.87760 0.82040 -0.11000
H 	H 	0.76000 0.00610 0.86290 -0.08500
H 	H 	0.03800 0.14240 0.65600 -0.16300
H 	H 	0.69800 0.76090 0.68830 -0.07400
H 	H 	0.61900 0.98720 0.55110 -0.08300
H 	H 	0.34900 0.36660 0.96620 -0.15100
H 	H 	0.30000 0.37760 0.67960 -0.14100
H 	H 	0.74000 0.50610 0.63710 -0.12500
H 	H 	0.46200 0.64240 0.84400 -0.10600
H 	H 	0.80200 0.26090 0.81170 -0.05400
H 	H 	0.88100 0.48720 0.94890 -0.03100
H 	H 	0.84900 0.63340 0.53380 -0.14800
H 	H 	0.80000 0.62240 0.82040 -0.09600
H 	H 	0.24000 0.49390 0.86290 -0.12300
H 	H 	0.96200 0.35760 0.65600 -0.08000
H 	H 	0.30200 0.73910 0.68830 -0.08800
H 	H 	0.38100 0.51280 0.55110 -0.10400
H 	H 	0.65100 0.13340 0.96620 -0.14000
H 	H 	0.70000 0.12240 0.67960 -0.11500
H 	H 	0.26000 0.99390 0.63710 -0.13900
H 	H 	0.53800 0.85760 0.84400 -0.09800
H 	H 	0.19800 0.23910 0.81170 -0.10700
H 	H 	0.11900 0.01280 0.94890 -0.13700
H 	H 	0.84900 0.13340 0.46620 -0.15900
H 	H 	0.80000 0.12240 0.17960 -0.12800
H 	H 	0.24000 0.99390 0.13710 -0.16900
H 	H 	0.96200 0.85760 0.34400 -0.07700
H 	H 	0.30200 0.23910 0.31170 -0.09100
H 	H 	0.38100 0.01280 0.44890 -0.12300
H 	H 	0.65100 0.63340 0.03380 -0.21200
H 	H 	0.70000 0.62240 0.32040 -0.10000
H 	H 	0.26000 0.49390 0.36290 -0.12700
H 	H 	0.53800 0.35760 0.15600 -0.13400
H 	H 	0.19800 0.73910 0.18830 -0.11300
H 	H 	0.11900 0.51280 0.05110 -0.17700
H 	H 	0.15100 0.36660 0.46620 -0.21100
H 	H 	0.20000 0.37760 0.17960 -0.14300
H 	H 	0.76000 0.50610 0.13710 -0.12900
H 	H 	0.03800 0.64240 0.34400 -0.15800
H 	H 	0.69800 0.26090 0.31170 -0.07700
H 	H 	0.61900 0.48720 0.44890 -0.10300
H 	H 	0.34900 0.86660 0.03380 -0.22000
H 	H 	0.30000 0.87760 0.32040 -0.12400
H 	H 	0.74000 0.00610 0.36290 -0.11100
H 	H 	0.46200 0.14240 0.15600 -0.14200
H 	H 	0.80200 0.76090 0.18830 -0.06100
H 	H 	0.88100 0.98720 0.05110 -0.07200
C 	C 	0.10110 0.86286 0.57191 0.64600
C 	C 	0.13600 0.86714 0.78323 0.51800
C 	C 	0.01720 0.09610 0.63852 0.56700
C 	C 	0.82960 0.00047 0.82982 0.41200
C 	C 	0.72220 0.81179 0.69382 0.46700
C 	C 	0.71240 0.98734 0.56032 0.50200
C 	C 	0.39890 0.36286 0.92809 0.63000
C 	C 	0.36400 0.36714 0.71677 0.52600
C 	C 	0.48280 0.59610 0.86148 0.52100
C 	C 	0.67040 0.50047 0.67018 0.52800
C 	C 	0.77780 0.31179 0.80618 0.46700
C 	C 	0.78760 0.48734 0.93968 0.47800
C 	C 	0.89890 0.63714 0.57191 0.61500
C 	C 	0.86400 0.63286 0.78323 0.50700
C 	C 	0.98280 0.40390 0.63852 0.50900
C 	C 	0.17040 0.49953 0.82982 0.53800
C 	C 	0.27780 0.68821 0.69382 0.49100
C 	C 	0.28760 0.51266 0.56032 0.50400
C 	C 	0.60110 0.13714 0.92809 0.62700
C 	C 	0.63600 0.13286 0.71677 0.52700
C 	C 	0.51720 0.90390 0.86148 0.51500
C 	C 	0.32960 0.99953 0.67018 0.63600
C 	C 	0.22220 0.18821 0.80618 0.49500
C 	C 	0.21240 0.01266 0.93968 0.50500
C 	C 	0.89890 0.13714 0.42809 0.62400
C 	C 	0.86400 0.13286 0.21677 0.51700
C 	C 	0.98280 0.90390 0.36148 0.50300
C 	C 	0.17040 0.99953 0.17018 0.65900
C 	C 	0.27780 0.18821 0.30618 0.48900
C 	C 	0.28760 0.01266 0.43968 0.50800
C 	C 	0.60110 0.63714 0.07191 0.65700
C 	C 	0.63600 0.63286 0.28323 0.51700
C 	C 	0.51720 0.40390 0.13852 0.55300
C 	C 	0.32960 0.49953 0.32982 0.52800
C 	C 	0.22220 0.68821 0.19382 0.49200
C 	C 	0.21240 0.51266 0.06032 0.53600
C 	C 	0.10110 0.36286 0.42809 0.66100
C 	C 	0.13600 0.36714 0.21677 0.53000
C 	C 	0.01720 0.59610 0.36148 0.56300
C 	C 	0.82960 0.50047 0.17018 0.51900
C 	C 	0.72220 0.31179 0.30618 0.46400
C 	C 	0.71240 0.48734 0.43968 0.50800
C 	C 	0.39890 0.86286 0.07191 0.65500
C 	C 	0.36400 0.86714 0.28323 0.51400
C 	C 	0.48280 0.09610 0.13852 0.55700
C 	C 	0.67040 0.00047 0.32982 0.42300
C 	C 	0.77780 0.81179 0.19382 0.46400
C 	C 	0.78760 0.98734 0.06032 0.50700
O 	O 	0.02649 0.91903 0.58413 -0.65200
O 	O 	0.10819 0.80680 0.60908 -0.53000
O 	O 	0.08387 0.92298 0.75236 -0.59700
O 	O 	0.11020 0.80204 0.76983 -0.48100
O 	O 	0.00741 0.04476 0.68532 -0.68000
O 	O 	0.00220 0.08994 0.57163 -0.53500
O 	O 	0.80172 0.96856 0.76975 -0.47500
O 	O 	0.94081 0.02663 0.84778 -0.34600
O 	O 	0.84543 0.83169 0.68684 -0.51600
O 	O 	0.79119 0.99127 0.50763 -0.36800
O 	O 	0.62298 0.85248 0.70408 -0.43300
O 	O 	0.74513 0.97877 0.62732 -0.52800
O 	O 	0.47351 0.41903 0.91587 -0.58100
O 	O 	0.39181 0.30680 0.89092 -0.48600
O 	O 	0.41613 0.42298 0.74764 -0.58600
O 	O 	0.38980 0.30204 0.73017 -0.46300
O 	O 	0.49259 0.54476 0.81468 -0.57600
O 	O 	0.49780 0.58994 0.92837 -0.39600
O 	O 	0.69828 0.46856 0.73025 -0.57800
O 	O 	0.55919 0.52663 0.65222 -0.45700
O 	O 	0.65457 0.33169 0.81316 -0.56000
O 	O 	0.70881 0.49127 0.99237 -0.35900
O 	O 	0.87702 0.35248 0.79592 -0.39500
O 	O 	0.75487 0.47877 0.87268 -0.54600
O 	O 	0.97351 0.58097 0.58413 -0.53000
O 	O 	0.89181 0.69320 0.60908 -0.43700
O 	O 	0.91613 0.57702 0.75236 -0.52600
O 	O 	0.88980 0.69796 0.76983 -0.38700
O 	O 	0.99259 0.45524 0.68532 -0.51900
O 	O 	0.99780 0.41006 0.57163 -0.36400
O 	O 	0.19828 0.53144 0.76975 -0.60800
O 	O 	0.05919 0.47337 0.84778 -0.52900
O 	O 	0.15457 0.66831 0.68684 -0.61200
O 	O 	0.20881 0.50873 0.50763 -0.46100
O 	O 	0.37702 0.64752 0.70408 -0.44600
O 	O 	0.25487 0.52123 0.62732 -0.60000
O 	O 	0.52649 0.08097 0.91587 -0.59300
O 	O 	0.60819 0.19320 0.89092 -0.47100
O 	O 	0.58387 0.07702 0.74764 -0.60300
O 	O 	0.61020 0.19796 0.73017 -0.44900
O 	O 	0.50741 0.95524 0.81468 -0.54300
O 	O 	0.50220 0.91006 0.92837 -0.37200
O 	O 	0.30172 0.03144 0.73025 -0.65000
O 	O 	0.44081 0.97337 0.65222 -0.46700
O 	O 	0.34543 0.16831 0.81316 -0.57700
O 	O 	0.29119 0.00873 0.99237 -0.41800
O 	O 	0.12298 0.14752 0.79592 -0.48300
O 	O 	0.24513 0.02123 0.87268 -0.60000
O 	O 	0.97351 0.08097 0.41587 -0.54400
O 	O 	0.89181 0.19320 0.39092 -0.44000
O 	O 	0.91613 0.07702 0.24764 -0.55700
O 	O 	0.88980 0.19796 0.23017 -0.40800
O 	O 	0.99259 0.95524 0.31468 -0.48800
O 	O 	0.99780 0.91006 0.42837 -0.34300
O 	O 	0.19828 0.03144 0.23025 -0.69200
O 	O 	0.05919 0.97337 0.15222 -0.56500
O 	O 	0.15457 0.16831 0.31316 -0.61600
O 	O 	0.20881 0.00873 0.49237 -0.49100
O 	O 	0.37702 0.14752 0.29592 -0.45100
O 	O 	0.25487 0.02123 0.37268 -0.62000
O 	O 	0.52649 0.58097 0.08413 -0.63500
O 	O 	0.60819 0.69320 0.10908 -0.50400
O 	O 	0.58387 0.57702 0.25236 -0.57500
O 	O 	0.61020 0.69796 0.26983 -0.44300
O 	O 	0.50741 0.45524 0.18532 -0.59100
O 	O 	0.50220 0.41006 0.07163 -0.49000
O 	O 	0.30172 0.53144 0.26975 -0.57900
O 	O 	0.44081 0.47337 0.34778 -0.45700
O 	O 	0.34543 0.66831 0.18684 -0.58300
O 	O 	0.29119 0.50873 0.00763 -0.51100
O 	O 	0.12298 0.64752 0.20408 -0.48900
O 	O 	0.24513 0.52123 0.12732 -0.60400
O 	O 	0.02649 0.41903 0.41587 -0.67900
O 	O 	0.10819 0.30680 0.39092 -0.53800
O 	O 	0.08387 0.42298 0.24764 -0.63200
O 	O 	0.11020 0.30204 0.23017 -0.50500
O 	O 	0.00741 0.54476 0.31468 -0.64700
O 	O 	0.00220 0.58994 0.42837 -0.51700
O 	O 	0.80172 0.46856 0.23025 -0.54900
O 	O 	0.94081 0.52663 0.15222 -0.38500
O 	O 	0.84543 0.33169 0.31316 -0.51700
O 	O 	0.79119 0.49127 0.49237 -0.40400
O 	O 	0.62298 0.35248 0.29592 -0.43700
O 	O 	0.74513 0.47877 0.37268 -0.54900
O 	O 	0.47351 0.91903 0.08413 -0.61400
O 	O 	0.39181 0.80680 0.10908 -0.51800
O 	O 	0.41613 0.92298 0.25236 -0.55600
O 	O 	0.38980 0.80204 0.26983 -0.45600
O 	O 	0.49259 0.04476 0.18532 -0.62400
O 	O 	0.49780 0.08994 0.07163 -0.50900
O 	O 	0.69828 0.96856 0.26975 -0.50800
O 	O 	0.55919 0.02663 0.34778 -0.44700
O 	O 	0.65457 0.83169 0.18684 -0.56600
O 	O 	0.70881 0.99127 0.00763 -0.44300
O 	O 	0.87702 0.85248 0.20408 -0.40300
O 	O 	0.75487 0.97877 0.12732 -0.54800
