data_crystal

_cell_length_a 5.54990
_cell_length_b 11.73610
_cell_length_c 22.81900
_cell_angle_alpha 100.99900
_cell_angle_beta  90.00000
_cell_angle_gamma 90.00000

_symmetry_space_group_name_	'P 1'
_symmetry_space_group_name_H-M	'P 1'

loop_
_symmetry_equiv_pos_as_xyz
  x,y,z

loop_
_atom_site_label
_atom_site_type_symbol
_atom_site_fract_x
_atom_site_fract_y
_atom_site_fract_z
_atom_site_charge
Ca	Ca	0.25892 0.86429 0.77776 1.51700
Ca	Ca	0.75892 0.63571 0.72224 1.51700
Ca	Ca	0.74108 0.13571 0.22224 1.51800
Ca	Ca	0.24108 0.36429 0.27776 1.51800
H 	H 	0.62230 0.26990 0.09560 0.01500
H 	H 	0.70590 0.22900 0.99410 0.07400
H 	H 	0.05520 0.08170 0.96280 0.09500
H 	H 	0.97080 0.12660 0.06380 0.01600
H 	H 	0.70110 0.31120 0.88250 0.07400
H 	H 	0.62060 0.45920 0.83130 0.01100
H 	H 	0.98060 0.31560 0.78090 0.02200
H 	H 	0.06540 0.16280 0.82880 0.08600
H 	H 	0.12230 0.23010 0.40440 0.01600
H 	H 	0.20590 0.27100 0.50590 0.07300
H 	H 	0.55520 0.41830 0.53720 0.09300
H 	H 	0.47080 0.37340 0.43620 0.02000
H 	H 	0.20110 0.18880 0.61750 0.07200
H 	H 	0.12060 0.04080 0.66870 0.01200
H 	H 	0.48060 0.18440 0.71910 0.02600
H 	H 	0.56540 0.33720 0.67120 0.08400
H 	H 	0.37770 0.73010 0.90440 0.01500
H 	H 	0.29410 0.77100 0.00590 0.07400
H 	H 	0.94480 0.91830 0.03720 0.09500
H 	H 	0.02920 0.87340 0.93620 0.01600
H 	H 	0.29890 0.68880 0.11750 0.07400
H 	H 	0.37940 0.54080 0.16870 0.01100
H 	H 	0.01940 0.68440 0.21910 0.02200
H 	H 	0.93460 0.83720 0.17120 0.08600
H 	H 	0.87770 0.76990 0.59560 0.01600
H 	H 	0.79410 0.72900 0.49410 0.07300
H 	H 	0.44480 0.58170 0.46280 0.09300
H 	H 	0.52920 0.62660 0.56380 0.02000
H 	H 	0.79890 0.81120 0.38250 0.07200
H 	H 	0.87940 0.95920 0.33130 0.01200
H 	H 	0.51940 0.81560 0.28090 0.02600
H 	H 	0.43460 0.66280 0.32880 0.08400
C 	C 	0.23610 0.22290 0.15514 0.42700
C 	C 	0.28970 0.19970 0.08968 -0.15800
C 	C 	0.50890 0.23150 0.06887 0.05800
C 	C 	0.55990 0.20650 0.00839 -0.10100
C 	C 	0.39170 0.14790 0.96959 0.02200
C 	C 	0.16970 0.11880 0.98955 -0.11300
C 	C 	0.12030 0.14550 0.04991 0.07400
C 	C 	0.39230 0.22230 0.85909 0.01000
C 	C 	0.55840 0.31140 0.86113 -0.10000
C 	C 	0.50890 0.40010 0.83110 0.05800
C 	C 	0.29370 0.40150 0.80058 -0.15700
C 	C 	0.12690 0.31350 0.80052 0.06400
C 	C 	0.17600 0.22250 0.82939 -0.10800
C 	C 	0.24450 0.49510 0.76489 0.45700
C 	C 	0.73610 0.27710 0.34486 0.42500
C 	C 	0.78970 0.30030 0.41032 -0.15400
C 	C 	0.00890 0.26850 0.43113 0.05500
C 	C 	0.05990 0.29350 0.49161 -0.09600
C 	C 	0.89170 0.35210 0.53041 0.01800
C 	C 	0.66970 0.38120 0.51045 -0.10800
C 	C 	0.62030 0.35450 0.45009 0.06700
C 	C 	0.89230 0.27770 0.64091 0.00400
C 	C 	0.05840 0.18860 0.63887 -0.09400
C 	C 	0.00890 0.09990 0.66890 0.05900
C 	C 	0.79370 0.09850 0.69942 -0.15600
C 	C 	0.62690 0.18650 0.69948 0.05700
C 	C 	0.67600 0.27750 0.67061 -0.10200
C 	C 	0.74450 0.00490 0.73511 0.45300
C 	C 	0.76390 0.77710 0.84486 0.42700
C 	C 	0.71030 0.80030 0.91032 -0.15800
C 	C 	0.49110 0.76850 0.93113 0.05800
C 	C 	0.44010 0.79350 0.99161 -0.10100
C 	C 	0.60830 0.85210 0.03041 0.02200
C 	C 	0.83030 0.88120 0.01045 -0.11300
C 	C 	0.87970 0.85450 0.95009 0.07400
C 	C 	0.60770 0.77770 0.14091 0.01000
C 	C 	0.44160 0.68860 0.13887 -0.10000
C 	C 	0.49110 0.59990 0.16890 0.05800
C 	C 	0.70630 0.59850 0.19942 -0.15700
C 	C 	0.87310 0.68650 0.19948 0.06400
C 	C 	0.82400 0.77750 0.17061 -0.10800
C 	C 	0.75550 0.50490 0.23511 0.45700
C 	C 	0.26390 0.72290 0.65514 0.42500
C 	C 	0.21030 0.69970 0.58968 -0.15400
C 	C 	0.99110 0.73150 0.56887 0.05500
C 	C 	0.94010 0.70650 0.50839 -0.09600
C 	C 	0.10830 0.64790 0.46959 0.01800
C 	C 	0.33030 0.61880 0.48955 -0.10800
C 	C 	0.37970 0.64550 0.54991 0.06700
C 	C 	0.10770 0.72230 0.35909 0.00400
C 	C 	0.94160 0.81140 0.36113 -0.09400
C 	C 	0.99110 0.90010 0.33110 0.05900
C 	C 	0.20630 0.90150 0.30058 -0.15600
C 	C 	0.37310 0.81350 0.30052 0.05700
C 	C 	0.32400 0.72250 0.32939 -0.10200
C 	C 	0.25550 0.99510 0.26489 0.45300
S 	S 	0.46610 0.10494 0.89348 0.29500
S 	S 	0.96610 0.39506 0.60652 0.29500
S 	S 	0.53390 0.89506 0.10652 0.29500
S 	S 	0.03390 0.60494 0.39348 0.29500
O 	O 	0.41170 0.23746 0.19088 -0.57700
O 	O 	0.02140 0.23116 0.17178 -0.51100
O 	O 	0.02810 0.51512 0.75567 -0.47000
O 	O 	0.30870 0.00881 0.86962 -0.35400
O 	O 	0.42250 0.54184 0.74633 -0.48600
O 	O 	0.72180 0.08874 0.88972 -0.24200
O 	O 	0.91170 0.26254 0.30912 -0.57700
O 	O 	0.52140 0.26884 0.32822 -0.51100
O 	O 	0.52810 0.98488 0.74433 -0.47000
O 	O 	0.80870 0.49119 0.63038 -0.35500
O 	O 	0.92250 0.95816 0.75367 -0.48300
O 	O 	0.22180 0.41126 0.61028 -0.23900
O 	O 	0.58830 0.76254 0.80912 -0.57700
O 	O 	0.97860 0.76884 0.82822 -0.51100
O 	O 	0.97190 0.48488 0.24433 -0.47000
O 	O 	0.69130 0.99119 0.13038 -0.35400
O 	O 	0.57750 0.45816 0.25367 -0.48600
O 	O 	0.27820 0.91126 0.11028 -0.24200
O 	O 	0.08830 0.73746 0.69088 -0.57700
O 	O 	0.47860 0.73116 0.67178 -0.51100
O 	O 	0.47190 0.01512 0.25567 -0.47000
O 	O 	0.19130 0.50881 0.36962 -0.35500
O 	O 	0.07750 0.04184 0.24633 -0.48300
O 	O 	0.77820 0.58874 0.38972 -0.23900
