data_crystal

_cell_length_a 10.92900
_cell_length_b 16.59400
_cell_length_c 18.27700
_cell_angle_alpha 116.99800
_cell_angle_beta  107.39600
_cell_angle_gamma 90.00000

_symmetry_space_group_name_	'P 1'
_symmetry_space_group_name_H-M	'P 1'

loop_
_symmetry_equiv_pos_as_xyz
  x,y,z

loop_
_atom_site_label
_atom_site_type_symbol
_atom_site_fract_x
_atom_site_fract_y
_atom_site_fract_z
_atom_site_charge
Zn	Zn	0.22335 0.43468 0.64924 1.21400
Zn	Zn	0.78911 0.63058 0.15342 1.22700
Zn	Zn	0.77665 0.78544 0.35076 1.21400
Zn	Zn	0.21089 0.47716 0.84658 1.22800
Zn	Zn	0.42589 0.93468 0.64924 1.20900
Zn	Zn	0.36431 0.13058 0.15342 1.22900
Zn	Zn	0.57411 0.28544 0.35076 1.21500
Zn	Zn	0.63569 0.97716 0.84658 1.22100
H 	H 	0.44390 0.19960 0.70840 0.02000
H 	H 	0.68320 0.26780 0.94900 0.04000
H 	H 	0.52840 0.46080 0.89440 0.03600
H 	H 	0.57850 0.63110 0.64100 0.05100
H 	H 	0.50350 0.59440 0.73620 0.02300
H 	H 	0.27550 0.37810 0.36740 0.07700
H 	H 	0.08850 0.26830 0.27060 0.00200
H 	H 	0.95110 0.22660 0.32600 0.09800
H 	H 	0.99550 0.29650 0.47220 0.01600
H 	H 	0.51630 0.57370 0.47780 0.10300
H 	H 	0.44250 0.47260 0.41720 0.09300
H 	H 	0.28870 0.48150 0.29980 0.12500
H 	H 	0.10700 0.53370 0.24260 -0.01400
H 	H 	0.13620 0.72050 0.48400 -0.00900
H 	H 	0.31140 0.66630 0.54080 0.13900
H 	H 	0.55610 0.49120 0.29160 0.01500
H 	H 	0.31680 0.31880 0.05100 0.03300
H 	H 	0.47160 0.56640 0.10560 0.03100
H 	H 	0.42150 0.99010 0.35900 0.03600
H 	H 	0.49650 0.85820 0.26380 0.02100
H 	H 	0.72450 0.01070 0.63260 0.14800
H 	H 	0.91150 0.99770 0.72940 -0.03300
H 	H 	0.04890 0.90060 0.67400 0.09800
H 	H 	0.00450 0.82430 0.52780 -0.00500
H 	H 	0.48370 0.09590 0.52220 0.09900
H 	H 	0.55750 0.05540 0.58280 0.09000
H 	H 	0.71130 0.18170 0.70020 0.12000
H 	H 	0.89300 0.29110 0.75740 -0.00400
H 	H 	0.86380 0.23650 0.51600 -0.00100
H 	H 	0.68860 0.12550 0.45920 0.14100
H 	H 	0.26450 0.69960 0.70840 0.01600
H 	H 	0.26580 0.76780 0.94900 0.03600
H 	H 	0.36600 0.96080 0.89440 0.02600
H 	H 	0.06250 0.13110 0.64100 0.05800
H 	H 	0.23270 0.09440 0.73620 0.01400
H 	H 	0.09190 0.87810 0.36740 0.07400
H 	H 	0.18210 0.76830 0.27060 -0.00100
H 	H 	0.37490 0.72660 0.32600 0.09000
H 	H 	0.47670 0.79650 0.47220 0.01000
H 	H 	0.96150 0.07370 0.47780 0.08100
H 	H 	0.97470 0.97260 0.41720 0.04200
H 	H 	0.01110 0.98150 0.29980 0.03700
H 	H 	0.13560 0.03370 0.24260 0.03700
H 	H 	0.34780 0.22050 0.48400 0.01900
H 	H 	0.22940 0.16630 0.54080 0.10800
H 	H 	0.73550 0.99120 0.29160 0.02100
H 	H 	0.73420 0.81880 0.05100 0.02800
H 	H 	0.63400 0.06640 0.10560 0.02400
H 	H 	0.93750 0.49010 0.35900 0.05200
H 	H 	0.76730 0.35820 0.26380 0.02400
H 	H 	0.90810 0.51070 0.63260 0.07700
H 	H 	0.81790 0.49770 0.72940 0.00400
H 	H 	0.62510 0.40060 0.67400 0.09000
H 	H 	0.52330 0.32430 0.52780 0.01000
H 	H 	0.03850 0.59590 0.52220 0.09100
H 	H 	0.02530 0.55540 0.58280 0.08100
H 	H 	0.98890 0.68170 0.70020 0.12300
H 	H 	0.86440 0.79110 0.75740 -0.01000
H 	H 	0.65220 0.73650 0.51600 -0.00500
H 	H 	0.77060 0.62550 0.45920 0.13500
C 	C 	0.48739 0.24369 0.76578 0.07800
C 	C 	0.56676 0.21806 0.82352 -0.14300
C 	C 	0.63206 0.28466 0.90912 0.06100
C 	C 	0.62060 0.37740 0.93520 -0.10200
C 	C 	0.53890 0.39990 0.87680 0.06100
C 	C 	0.47217 0.33467 0.79274 -0.14100
C 	C 	0.69590 0.45050 0.02660 0.31200
C 	C 	0.38088 0.36238 0.73096 0.36000
C 	C 	0.57694 0.11964 0.79648 0.39300
C 	C 	0.51030 0.58580 0.62380 -0.02600
C 	C 	0.46760 0.56570 0.67580 0.03500
C 	C 	0.34239 0.47529 0.54518 0.05700
C 	C 	0.23413 0.40293 0.47506 0.06700
C 	C 	0.21630 0.36220 0.38800 -0.13000
C 	C 	0.10570 0.29560 0.33040 0.07000
C 	C 	0.02390 0.27130 0.36280 -0.15500
C 	C 	0.05150 0.31410 0.45060 0.08800
C 	C 	0.43860 0.53270 0.46180 -0.20800
C 	C 	0.31832 0.56832 0.42504 0.20600
C 	C 	0.25690 0.52930 0.33700 -0.25400
C 	C 	0.14757 0.56027 0.30254 0.16200
C 	C 	0.09995 0.63035 0.35750 -0.22800
C 	C 	0.16531 0.67091 0.44662 0.16600
C 	C 	0.27102 0.63982 0.48064 -0.25400
C 	C 	0.98085 0.66285 0.31990 0.46400
C 	C 	0.51261 0.47791 0.23422 0.08500
C 	C 	0.43324 0.39454 0.17648 -0.15300
C 	C 	0.36794 0.37554 0.09088 0.06900
C 	C 	0.37940 0.44220 0.06480 -0.11700
C 	C 	0.46110 0.52310 0.12320 0.07000
C 	C 	0.52783 0.54193 0.20726 -0.14800
C 	C 	0.30410 0.42390 0.97340 0.32100
C 	C 	0.61912 0.63142 0.26904 0.36200
C 	C 	0.42306 0.32316 0.20352 0.39800
C 	C 	0.48970 0.96200 0.37620 -0.02700
C 	C 	0.53240 0.88990 0.32420 0.03000
C 	C 	0.65761 0.93011 0.45482 0.03700
C 	C 	0.76587 0.92787 0.52494 0.10500
C 	C 	0.78370 0.97420 0.61200 -0.25200
C 	C 	0.89430 0.96520 0.66960 0.13700
C 	C 	0.97610 0.90850 0.63720 -0.19200
C 	C 	0.94850 0.86350 0.54940 0.12500
C 	C 	0.56140 0.07090 0.53820 -0.16800
C 	C 	0.68168 0.14328 0.57496 0.19300
C 	C 	0.74310 0.19230 0.66300 -0.23500
C 	C 	0.85243 0.25773 0.69746 0.14700
C 	C 	0.90005 0.27285 0.64250 -0.20500
C 	C 	0.83469 0.22429 0.55338 0.15100
C 	C 	0.72898 0.15918 0.51936 -0.23500
C 	C 	0.01915 0.34295 0.68010 0.44800
C 	C 	0.27839 0.74369 0.76578 0.08000
C 	C 	0.25676 0.71806 0.82352 -0.14900
C 	C 	0.27706 0.78466 0.90912 0.05900
C 	C 	0.31460 0.87740 0.93520 -0.09900
C 	C 	0.33790 0.89990 0.87680 0.05800
C 	C 	0.32057 0.83467 0.79274 -0.14500
C 	C 	0.33070 0.95050 0.02660 0.26800
C 	C 	0.35008 0.86238 0.73096 0.36200
C 	C 	0.21954 0.61964 0.79648 0.39600
C 	C 	0.11350 0.08580 0.62380 -0.03600
C 	C 	0.20820 0.06570 0.67580 0.08500
C 	C 	0.20279 0.97529 0.54518 0.02400
C 	C 	0.24093 0.90293 0.47506 0.06900
C 	C 	0.17170 0.86220 0.38800 -0.13700
C 	C 	0.22470 0.79560 0.33040 0.06800
C 	C 	0.33890 0.77130 0.36280 -0.14800
C 	C 	0.39910 0.81410 0.45060 0.09200
C 	C 	0.02320 0.03270 0.46180 -0.09800
C 	C 	0.10672 0.06832 0.42504 0.10700
C 	C 	0.08010 0.02930 0.33700 -0.07700
C 	C 	0.15497 0.06027 0.30254 0.05000
C 	C 	0.25755 0.13035 0.35750 -0.14800
C 	C 	0.28131 0.17091 0.44662 0.08800
C 	C 	0.20962 0.13982 0.48064 -0.16300
C 	C 	0.33905 0.16285 0.31990 0.43400
C 	C 	0.72161 0.97791 0.23422 0.03400
C 	C 	0.74324 0.89454 0.17648 -0.14500
C 	C 	0.72294 0.87554 0.09088 0.07700
C 	C 	0.68540 0.94220 0.06480 -0.16300
C 	C 	0.66210 0.02310 0.12320 0.11900
C 	C 	0.67943 0.04193 0.20726 -0.11400
C 	C 	0.66930 0.92390 0.97340 0.33300
C 	C 	0.64992 0.13142 0.26904 0.35800
C 	C 	0.78046 0.82316 0.20352 0.39400
C 	C 	0.88650 0.46200 0.37620 -0.02300
C 	C 	0.79180 0.38990 0.32420 0.03400
C 	C 	0.79721 0.43011 0.45482 0.05900
C 	C 	0.75907 0.42787 0.52494 0.06600
C 	C 	0.82830 0.47420 0.61200 -0.12700
C 	C 	0.77530 0.46520 0.66960 0.06600
C 	C 	0.66110 0.40850 0.63720 -0.14600
C 	C 	0.60090 0.36350 0.54940 0.09300
C 	C 	0.97680 0.57090 0.53820 -0.18000
C 	C 	0.89328 0.64328 0.57496 0.19400
C 	C 	0.91990 0.69230 0.66300 -0.24100
C 	C 	0.84503 0.75773 0.69746 0.15200
C 	C 	0.74245 0.77285 0.64250 -0.21600
C 	C 	0.71869 0.72429 0.55338 0.15500
C 	C 	0.79038 0.65918 0.51936 -0.24200
C 	C 	0.66095 0.84295 0.68010 0.45500
N 	N 	0.43332 0.52652 0.53984 -0.08600
N 	N 	0.36408 0.49698 0.62756 -0.23600
N 	N 	0.15423 0.38013 0.50846 -0.23200
N 	N 	0.56668 0.98668 0.46016 -0.10400
N 	N 	0.63592 0.86942 0.37244 -0.23200
N 	N 	0.84577 0.87167 0.49154 -0.24600
N 	N 	0.10652 0.02652 0.53984 -0.07300
N 	N 	0.26348 0.99698 0.62756 -0.25800
N 	N 	0.35423 0.88013 0.50846 -0.23600
N 	N 	0.89348 0.48668 0.46016 -0.08900
N 	N 	0.73652 0.36942 0.37244 -0.23500
N 	N 	0.64577 0.37167 0.49154 -0.23200
O 	O 	0.68067 0.53227 0.04334 -0.44500
O 	O 	0.74130 0.42890 0.08700 -0.27700
O 	O 	0.35704 0.31744 0.65188 -0.37300
O 	O 	0.33210 0.43480 0.76420 -0.54900
O 	O 	0.54253 0.06293 0.71666 -0.45700
O 	O 	0.61854 0.09854 0.85728 -0.45600
O 	O 	0.93765 0.72535 0.37010 -0.48900
O 	O 	0.93201 0.62181 0.23742 -0.52500
O 	O 	0.31933 0.48893 0.95666 -0.44500
O 	O 	0.25870 0.34190 0.91300 -0.27700
O 	O 	0.64296 0.66556 0.34812 -0.37400
O 	O 	0.66790 0.67060 0.23580 -0.55000
O 	O 	0.45747 0.34627 0.28334 -0.47600
O 	O 	0.38146 0.24126 0.14272 -0.47700
O 	O 	0.06235 0.35525 0.62990 -0.48900
O 	O 	0.06799 0.38439 0.76258 -0.52500
O 	O 	0.36267 0.03227 0.04334 -0.40400
O 	O 	0.34570 0.92890 0.08700 -0.28300
O 	O 	0.29484 0.81744 0.65188 -0.37600
O 	O 	0.43210 0.93480 0.76420 -0.56100
O 	O 	0.17413 0.56293 0.71666 -0.47700
O 	O 	0.23874 0.59854 0.85728 -0.47900
O 	O 	0.43245 0.22535 0.37010 -0.48200
O 	O 	0.30541 0.12181 0.23742 -0.51200
O 	O 	0.63733 0.98893 0.95666 -0.46400
O 	O 	0.65430 0.84190 0.91300 -0.28400
O 	O 	0.70516 0.16556 0.34812 -0.36600
O 	O 	0.56790 0.17060 0.23580 -0.54600
O 	O 	0.82587 0.84627 0.28334 -0.47400
O 	O 	0.76126 0.74126 0.14272 -0.47900
O 	O 	0.56755 0.85525 0.62990 -0.49500
O 	O 	0.69459 0.88439 0.76258 -0.53000
