data_crystal

_cell_length_a 18.28300
_cell_length_b 18.28300
_cell_length_c 18.28300
_cell_angle_alpha 60.00000
_cell_angle_beta  60.00000
_cell_angle_gamma 60.00000

_symmetry_space_group_name_	'P 1'
_symmetry_space_group_name_H-M	'P 1'

loop_
_symmetry_equiv_pos_as_xyz
  x,y,z

loop_
_atom_site_label
_atom_site_type_symbol
_atom_site_fract_x
_atom_site_fract_y
_atom_site_fract_z
_atom_site_charge
Zn	Zn	0.20657 0.38031 0.20656 1.21100
Zn	Zn	0.38032 0.20656 0.20656 1.21100
Zn	Zn	0.20657 0.20656 0.20656 1.21100
Zn	Zn	0.20657 0.20656 0.38031 1.21100
Zn	Zn	0.61968 0.79344 0.79344 1.21100
Zn	Zn	0.79343 0.61969 0.79344 1.21100
Zn	Zn	0.79343 0.79344 0.79344 1.21100
Zn	Zn	0.79343 0.79344 0.61969 1.21100
H 	H 	0.04500 0.56540 0.04500 0.04700
H 	H 	0.56540 0.04500 0.34460 0.04700
H 	H 	0.04500 0.34460 0.04500 0.04700
H 	H 	0.34460 0.04500 0.56540 0.04700
H 	H 	0.04500 0.04500 0.34460 0.04800
H 	H 	0.56540 0.34460 0.04500 0.04800
H 	H 	0.04500 0.04500 0.56540 0.04800
H 	H 	0.34460 0.56540 0.04500 0.04800
H 	H 	0.04500 0.34460 0.56540 0.04800
H 	H 	0.56540 0.04500 0.04500 0.04800
H 	H 	0.04500 0.56540 0.34460 0.04800
H 	H 	0.34460 0.04500 0.04500 0.04800
H 	H 	0.43460 0.95500 0.95500 0.04800
H 	H 	0.95500 0.43460 0.65540 0.04800
H 	H 	0.65540 0.95500 0.95500 0.04800
H 	H 	0.95500 0.65540 0.43460 0.04800
H 	H 	0.95500 0.95500 0.65540 0.04800
H 	H 	0.65540 0.43460 0.95500 0.04800
H 	H 	0.95500 0.95500 0.43460 0.04800
H 	H 	0.43460 0.65540 0.95500 0.04800
H 	H 	0.65540 0.95500 0.43460 0.04800
H 	H 	0.95500 0.43460 0.95500 0.04800
H 	H 	0.43460 0.95500 0.65540 0.04800
H 	H 	0.95500 0.65540 0.95500 0.04800
C 	C 	0.02670 0.53864 0.02670 -0.01300
C 	C 	0.53864 0.02670 0.40796 -0.01300
C 	C 	0.02670 0.40796 0.02670 -0.01300
C 	C 	0.40796 0.02670 0.53864 -0.01300
C 	C 	0.02670 0.02670 0.40796 -0.01300
C 	C 	0.53864 0.40796 0.02670 -0.01300
C 	C 	0.02670 0.02670 0.53864 -0.01300
C 	C 	0.40796 0.53864 0.02670 -0.01300
C 	C 	0.02670 0.40796 0.53864 -0.01300
C 	C 	0.53864 0.02670 0.02670 -0.01300
C 	C 	0.02670 0.53864 0.40796 -0.01300
C 	C 	0.40796 0.02670 0.02670 -0.01300
C 	C 	0.46136 0.97330 0.97330 -0.01300
C 	C 	0.97330 0.46136 0.59204 -0.01300
C 	C 	0.59204 0.97330 0.97330 -0.01300
C 	C 	0.97330 0.59204 0.46136 -0.01300
C 	C 	0.97330 0.97330 0.59204 -0.01300
C 	C 	0.59204 0.46136 0.97330 -0.01300
C 	C 	0.97330 0.97330 0.46136 -0.01300
C 	C 	0.46136 0.59204 0.97330 -0.01300
C 	C 	0.59204 0.97330 0.46136 -0.01300
C 	C 	0.97330 0.46136 0.97330 -0.01300
C 	C 	0.46136 0.97330 0.59204 -0.01300
C 	C 	0.97330 0.59204 0.97330 -0.01300
C 	C 	0.11148 0.38852 0.11148 0.38900
C 	C 	0.05372 0.44628 0.05372 -0.09000
C 	C 	0.38852 0.11148 0.38852 0.38900
C 	C 	0.44628 0.05372 0.44628 -0.09000
C 	C 	0.11148 0.11148 0.38852 0.38900
C 	C 	0.05372 0.05372 0.44628 -0.09000
C 	C 	0.38852 0.38852 0.11148 0.38900
C 	C 	0.44628 0.44628 0.05372 -0.09000
C 	C 	0.11148 0.38852 0.38852 0.38900
C 	C 	0.05372 0.44628 0.44628 -0.09000
C 	C 	0.38852 0.11148 0.11148 0.38900
C 	C 	0.44628 0.05372 0.05372 -0.09000
C 	C 	0.61148 0.88852 0.88852 0.38900
C 	C 	0.55372 0.94628 0.94628 -0.09000
C 	C 	0.88852 0.61148 0.61148 0.38900
C 	C 	0.94628 0.55372 0.55372 -0.09000
C 	C 	0.88852 0.88852 0.61148 0.38900
C 	C 	0.94628 0.94628 0.55372 -0.09000
C 	C 	0.61148 0.61148 0.88852 0.38900
C 	C 	0.55372 0.55372 0.94628 -0.09000
C 	C 	0.61148 0.88852 0.61148 0.38900
C 	C 	0.55372 0.94628 0.55372 -0.09000
C 	C 	0.88852 0.61148 0.88852 0.38900
C 	C 	0.94628 0.55372 0.94628 -0.09000
O 	O 	0.25000 0.25000 0.25000 -0.96000
O 	O 	0.75000 0.75000 0.75000 -0.96000
O 	O 	0.13373 0.42751 0.13373 -0.50800
O 	O 	0.42751 0.13373 0.30503 -0.50800
O 	O 	0.13373 0.30503 0.13373 -0.50800
O 	O 	0.30503 0.13373 0.42751 -0.50800
O 	O 	0.13373 0.13373 0.30503 -0.50800
O 	O 	0.42751 0.30503 0.13373 -0.50800
O 	O 	0.13373 0.13373 0.42751 -0.50800
O 	O 	0.30503 0.42751 0.13373 -0.50800
O 	O 	0.13373 0.30503 0.42751 -0.50800
O 	O 	0.42751 0.13373 0.13373 -0.50800
O 	O 	0.13373 0.42751 0.30503 -0.50800
O 	O 	0.30503 0.13373 0.13373 -0.50800
O 	O 	0.57249 0.86627 0.86627 -0.50800
O 	O 	0.86627 0.57249 0.69497 -0.50800
O 	O 	0.69497 0.86627 0.86627 -0.50800
O 	O 	0.86627 0.69497 0.57249 -0.50800
O 	O 	0.86627 0.86627 0.69497 -0.50800
O 	O 	0.69497 0.57249 0.86627 -0.50800
O 	O 	0.86627 0.86627 0.57249 -0.50800
O 	O 	0.57249 0.69497 0.86627 -0.50800
O 	O 	0.69497 0.86627 0.57249 -0.50800
O 	O 	0.86627 0.57249 0.86627 -0.50800
O 	O 	0.57249 0.86627 0.69497 -0.50800
O 	O 	0.86627 0.69497 0.86627 -0.50800
