data_crystal

_cell_length_a 18.31270
_cell_length_b 18.31270
_cell_length_c 18.31270
_cell_angle_alpha 60.00000
_cell_angle_beta  60.00000
_cell_angle_gamma 60.00000

_symmetry_space_group_name_	'P 1'
_symmetry_space_group_name_H-M	'P 1'

loop_
_symmetry_equiv_pos_as_xyz
  x,y,z

loop_
_atom_site_label
_atom_site_type_symbol
_atom_site_fract_x
_atom_site_fract_y
_atom_site_fract_z
_atom_site_charge
Zn	Zn	0.20666 0.38001 0.20666 1.20900
Zn	Zn	0.38001 0.20666 0.20666 1.20900
Zn	Zn	0.20667 0.20666 0.20666 1.20900
Zn	Zn	0.20667 0.20666 0.38001 1.20900
Zn	Zn	0.61999 0.79334 0.79334 1.20900
Zn	Zn	0.79334 0.61999 0.79333 1.20900
Zn	Zn	0.79334 0.79333 0.79334 1.20900
Zn	Zn	0.79334 0.79333 0.61999 1.20900
H 	H 	0.04520 0.56580 0.04520 0.04800
H 	H 	0.56580 0.04520 0.34380 0.04800
H 	H 	0.04520 0.34380 0.04520 0.04800
H 	H 	0.34380 0.04520 0.56580 0.04800
H 	H 	0.04520 0.04520 0.34380 0.04900
H 	H 	0.56580 0.34380 0.04520 0.04900
H 	H 	0.04520 0.04520 0.56580 0.04900
H 	H 	0.34380 0.56580 0.04520 0.04900
H 	H 	0.04520 0.34380 0.56580 0.04900
H 	H 	0.56580 0.04520 0.04520 0.04900
H 	H 	0.04520 0.56580 0.34380 0.04900
H 	H 	0.34380 0.04520 0.04520 0.04900
H 	H 	0.43420 0.95480 0.95480 0.04900
H 	H 	0.95480 0.43420 0.65620 0.04900
H 	H 	0.65620 0.95480 0.95480 0.04900
H 	H 	0.95480 0.65620 0.43420 0.04900
H 	H 	0.95480 0.95480 0.65620 0.04900
H 	H 	0.65620 0.43420 0.95480 0.04900
H 	H 	0.95480 0.95480 0.43420 0.04900
H 	H 	0.43420 0.65620 0.95480 0.04900
H 	H 	0.65620 0.95480 0.43420 0.04900
H 	H 	0.95480 0.43420 0.95480 0.04900
H 	H 	0.43420 0.95480 0.65620 0.04900
H 	H 	0.95480 0.65620 0.95480 0.04900
C 	C 	0.02688 0.53930 0.02688 -0.01500
C 	C 	0.53930 0.02688 0.40694 -0.01500
C 	C 	0.02688 0.40694 0.02688 -0.01500
C 	C 	0.40694 0.02688 0.53930 -0.01500
C 	C 	0.02688 0.02688 0.40694 -0.01500
C 	C 	0.53930 0.40694 0.02688 -0.01500
C 	C 	0.02688 0.02688 0.53930 -0.01500
C 	C 	0.40694 0.53930 0.02688 -0.01500
C 	C 	0.02688 0.40694 0.53930 -0.01500
C 	C 	0.53930 0.02688 0.02688 -0.01500
C 	C 	0.02688 0.53930 0.40694 -0.01500
C 	C 	0.40694 0.02688 0.02688 -0.01500
C 	C 	0.46070 0.97312 0.97312 -0.01500
C 	C 	0.97312 0.46070 0.59306 -0.01500
C 	C 	0.59306 0.97312 0.97312 -0.01500
C 	C 	0.97312 0.59306 0.46070 -0.01500
C 	C 	0.97312 0.97312 0.59306 -0.01500
C 	C 	0.59306 0.46070 0.97312 -0.01500
C 	C 	0.97312 0.97312 0.46070 -0.01500
C 	C 	0.46070 0.59306 0.97312 -0.01500
C 	C 	0.59306 0.97312 0.46070 -0.01500
C 	C 	0.97312 0.46070 0.97312 -0.01500
C 	C 	0.46070 0.97312 0.59306 -0.01500
C 	C 	0.97312 0.59306 0.97312 -0.01500
C 	C 	0.11142 0.38858 0.11142 0.37900
C 	C 	0.05381 0.44619 0.05381 -0.08600
C 	C 	0.38858 0.11142 0.38858 0.37900
C 	C 	0.44619 0.05381 0.44619 -0.08600
C 	C 	0.11142 0.11142 0.38858 0.37900
C 	C 	0.05381 0.05381 0.44619 -0.08600
C 	C 	0.38858 0.38858 0.11142 0.37900
C 	C 	0.44619 0.44619 0.05381 -0.08600
C 	C 	0.11142 0.38858 0.38858 0.37900
C 	C 	0.05381 0.44619 0.44619 -0.08600
C 	C 	0.38858 0.11142 0.11142 0.37900
C 	C 	0.44619 0.05381 0.05381 -0.08600
C 	C 	0.61142 0.88858 0.88858 0.37900
C 	C 	0.55381 0.94619 0.94619 -0.08600
C 	C 	0.88858 0.61142 0.61142 0.37900
C 	C 	0.94619 0.55381 0.55381 -0.08600
C 	C 	0.88858 0.88858 0.61142 0.37900
C 	C 	0.94619 0.94619 0.55381 -0.08600
C 	C 	0.61142 0.61142 0.88858 0.37900
C 	C 	0.55381 0.55381 0.94619 -0.08600
C 	C 	0.61142 0.88858 0.61142 0.37900
C 	C 	0.55381 0.94619 0.55381 -0.08600
C 	C 	0.88858 0.61142 0.88858 0.37900
C 	C 	0.94619 0.55381 0.94619 -0.08600
O 	O 	0.25000 0.25000 0.25000 -0.96400
O 	O 	0.75000 0.75000 0.75000 -0.96400
O 	O 	0.13369 0.42773 0.13369 -0.50300
O 	O 	0.42773 0.13369 0.30489 -0.50300
O 	O 	0.13369 0.30489 0.13369 -0.50300
O 	O 	0.30489 0.13369 0.42773 -0.50300
O 	O 	0.13369 0.13369 0.30489 -0.50300
O 	O 	0.42773 0.30489 0.13369 -0.50300
O 	O 	0.13369 0.13369 0.42773 -0.50300
O 	O 	0.30489 0.42773 0.13369 -0.50300
O 	O 	0.13369 0.30489 0.42773 -0.50300
O 	O 	0.42773 0.13369 0.13369 -0.50300
O 	O 	0.13369 0.42773 0.30489 -0.50300
O 	O 	0.30489 0.13369 0.13369 -0.50300
O 	O 	0.57227 0.86631 0.86631 -0.50300
O 	O 	0.86631 0.57227 0.69511 -0.50300
O 	O 	0.69511 0.86631 0.86631 -0.50300
O 	O 	0.86631 0.69511 0.57227 -0.50300
O 	O 	0.86631 0.86631 0.69511 -0.50300
O 	O 	0.69511 0.57227 0.86631 -0.50300
O 	O 	0.86631 0.86631 0.57227 -0.50300
O 	O 	0.57227 0.69511 0.86631 -0.50300
O 	O 	0.69511 0.86631 0.57227 -0.50300
O 	O 	0.86631 0.57227 0.86631 -0.50300
O 	O 	0.57227 0.86631 0.69511 -0.50300
O 	O 	0.86631 0.69511 0.86631 -0.50300
