data_crystal

_cell_length_a 18.29430
_cell_length_b 18.29430
_cell_length_c 18.29430
_cell_angle_alpha 60.00000
_cell_angle_beta  60.00000
_cell_angle_gamma 60.00000

_symmetry_space_group_name_	'P 1'
_symmetry_space_group_name_H-M	'P 1'

loop_
_symmetry_equiv_pos_as_xyz
  x,y,z

loop_
_atom_site_label
_atom_site_type_symbol
_atom_site_fract_x
_atom_site_fract_y
_atom_site_fract_z
_atom_site_charge
Zn	Zn	0.20660 0.38020 0.20660 1.21200
Zn	Zn	0.38020 0.20660 0.20660 1.21200
Zn	Zn	0.20660 0.20660 0.20660 1.21200
Zn	Zn	0.20660 0.20660 0.38020 1.21200
Zn	Zn	0.61980 0.79340 0.79340 1.21200
Zn	Zn	0.79340 0.61980 0.79340 1.21200
Zn	Zn	0.79340 0.79340 0.79340 1.21200
Zn	Zn	0.79340 0.79340 0.61980 1.21200
H 	H 	0.04510 0.56550 0.04510 0.04900
H 	H 	0.56550 0.04510 0.34430 0.04900
H 	H 	0.04510 0.34430 0.04510 0.04800
H 	H 	0.34430 0.04510 0.56550 0.04800
H 	H 	0.04510 0.04510 0.34430 0.04800
H 	H 	0.56550 0.34430 0.04510 0.04800
H 	H 	0.04510 0.04510 0.56550 0.04800
H 	H 	0.34430 0.56550 0.04510 0.04800
H 	H 	0.04510 0.34430 0.56550 0.04800
H 	H 	0.56550 0.04510 0.04510 0.04800
H 	H 	0.04510 0.56550 0.34430 0.04800
H 	H 	0.34430 0.04510 0.04510 0.04800
H 	H 	0.43450 0.95490 0.95490 0.04800
H 	H 	0.95490 0.43450 0.65570 0.04800
H 	H 	0.65570 0.95490 0.95490 0.04800
H 	H 	0.95490 0.65570 0.43450 0.04800
H 	H 	0.95490 0.95490 0.65570 0.04800
H 	H 	0.65570 0.43450 0.95490 0.04800
H 	H 	0.95490 0.95490 0.43450 0.04800
H 	H 	0.43450 0.65570 0.95490 0.04800
H 	H 	0.65570 0.95490 0.43450 0.04800
H 	H 	0.95490 0.43450 0.95490 0.04800
H 	H 	0.43450 0.95490 0.65570 0.04800
H 	H 	0.95490 0.65570 0.95490 0.04800
C 	C 	0.02675 0.53889 0.02675 -0.01400
C 	C 	0.53889 0.02675 0.40761 -0.01400
C 	C 	0.02675 0.40761 0.02675 -0.01400
C 	C 	0.40761 0.02675 0.53889 -0.01400
C 	C 	0.02675 0.02675 0.40761 -0.01400
C 	C 	0.53889 0.40761 0.02675 -0.01400
C 	C 	0.02675 0.02675 0.53889 -0.01400
C 	C 	0.40761 0.53889 0.02675 -0.01400
C 	C 	0.02675 0.40761 0.53889 -0.01400
C 	C 	0.53889 0.02675 0.02675 -0.01400
C 	C 	0.02675 0.53889 0.40761 -0.01400
C 	C 	0.40761 0.02675 0.02675 -0.01400
C 	C 	0.46111 0.97325 0.97325 -0.01400
C 	C 	0.97325 0.46111 0.59239 -0.01400
C 	C 	0.59239 0.97325 0.97325 -0.01400
C 	C 	0.97325 0.59239 0.46111 -0.01400
C 	C 	0.97325 0.97325 0.59239 -0.01400
C 	C 	0.59239 0.46111 0.97325 -0.01400
C 	C 	0.97325 0.97325 0.46111 -0.01400
C 	C 	0.46111 0.59239 0.97325 -0.01400
C 	C 	0.59239 0.97325 0.46111 -0.01400
C 	C 	0.97325 0.46111 0.97325 -0.01400
C 	C 	0.46111 0.97325 0.59239 -0.01400
C 	C 	0.97325 0.59239 0.97325 -0.01400
C 	C 	0.11147 0.38853 0.11147 0.38400
C 	C 	0.05374 0.44626 0.05374 -0.08800
C 	C 	0.38853 0.11147 0.38853 0.38400
C 	C 	0.44626 0.05374 0.44626 -0.08800
C 	C 	0.11147 0.11147 0.38853 0.38400
C 	C 	0.05374 0.05374 0.44626 -0.08800
C 	C 	0.38853 0.38853 0.11147 0.38400
C 	C 	0.44626 0.44626 0.05374 -0.08800
C 	C 	0.11147 0.38853 0.38853 0.38400
C 	C 	0.05374 0.44626 0.44626 -0.08800
C 	C 	0.38853 0.11147 0.11147 0.38400
C 	C 	0.44626 0.05374 0.05374 -0.08800
C 	C 	0.61147 0.88853 0.88853 0.38400
C 	C 	0.55374 0.94626 0.94626 -0.08800
C 	C 	0.88853 0.61147 0.61147 0.38400
C 	C 	0.94626 0.55374 0.55374 -0.08800
C 	C 	0.88853 0.88853 0.61147 0.38400
C 	C 	0.94626 0.94626 0.55374 -0.08800
C 	C 	0.61147 0.61147 0.88853 0.38400
C 	C 	0.55374 0.55374 0.94626 -0.08800
C 	C 	0.61147 0.88853 0.61147 0.38400
C 	C 	0.55374 0.94626 0.55374 -0.08800
C 	C 	0.88853 0.61147 0.88853 0.38400
C 	C 	0.94626 0.55374 0.94626 -0.08800
O 	O 	0.25000 0.25000 0.25000 -0.96100
O 	O 	0.75000 0.75000 0.75000 -0.96100
O 	O 	0.13372 0.42764 0.13372 -0.50600
O 	O 	0.42764 0.13372 0.30492 -0.50600
O 	O 	0.13372 0.30492 0.13372 -0.50600
O 	O 	0.30492 0.13372 0.42764 -0.50600
O 	O 	0.13372 0.13372 0.30492 -0.50600
O 	O 	0.42764 0.30492 0.13372 -0.50600
O 	O 	0.13372 0.13372 0.42764 -0.50600
O 	O 	0.30492 0.42764 0.13372 -0.50600
O 	O 	0.13372 0.30492 0.42764 -0.50600
O 	O 	0.42764 0.13372 0.13372 -0.50600
O 	O 	0.13372 0.42764 0.30492 -0.50600
O 	O 	0.30492 0.13372 0.13372 -0.50600
O 	O 	0.57236 0.86628 0.86628 -0.50600
O 	O 	0.86628 0.57236 0.69508 -0.50600
O 	O 	0.69508 0.86628 0.86628 -0.50600
O 	O 	0.86628 0.69508 0.57236 -0.50600
O 	O 	0.86628 0.86628 0.69508 -0.50600
O 	O 	0.69508 0.57236 0.86628 -0.50600
O 	O 	0.86628 0.86628 0.57236 -0.50600
O 	O 	0.57236 0.69508 0.86628 -0.50600
O 	O 	0.69508 0.86628 0.57236 -0.50600
O 	O 	0.86628 0.57236 0.86628 -0.50600
O 	O 	0.57236 0.86628 0.69508 -0.50600
O 	O 	0.86628 0.69508 0.86628 -0.50600
