data_crystal

_cell_length_a 7.71590
_cell_length_b 7.86230
_cell_length_c 18.32300
_cell_angle_alpha 90.00000
_cell_angle_beta  90.00000
_cell_angle_gamma 95.70000

_symmetry_space_group_name_	'P 1'
_symmetry_space_group_name_H-M	'P 1'

loop_
_symmetry_equiv_pos_as_xyz
  x,y,z

loop_
_atom_site_label
_atom_site_type_symbol
_atom_site_fract_x
_atom_site_fract_y
_atom_site_fract_z
_atom_site_charge
Ca	Ca	0.72083 0.78084 0.72561 1.49600
Ca	Ca	0.77917 0.21916 0.22561 1.49500
Ca	Ca	0.27917 0.21916 0.27438 1.49600
Ca	Ca	0.22083 0.78084 0.77439 1.49600
H 	H 	0.62560 0.29680 0.92660 0.04700
H 	H 	0.72770 0.45290 0.96640 0.04700
H 	H 	0.38580 0.45160 0.91010 0.05900
H 	H 	0.39090 0.73910 0.94500 -0.00200
H 	H 	0.57780 0.73500 0.97840 0.03300
H 	H 	0.77520 0.99130 0.95790 0.07800
H 	H 	0.07900 0.81650 0.94520 -0.00700
H 	H 	0.89150 0.72540 0.95920 0.02200
H 	H 	0.95370 0.24380 0.92950 0.03800
H 	H 	0.11810 0.14110 0.92610 0.03000
H 	H 	0.87440 0.70320 0.42660 0.04900
H 	H 	0.77230 0.54710 0.46640 0.04800
H 	H 	0.11420 0.54840 0.41010 0.05800
H 	H 	0.10910 0.26090 0.44500 -0.00200
H 	H 	0.92220 0.26500 0.47840 0.03000
H 	H 	0.72480 0.00870 0.45790 0.07700
H 	H 	0.42100 0.18350 0.44520 0.00200
H 	H 	0.60850 0.27460 0.45920 0.02700
H 	H 	0.54630 0.75620 0.42950 0.03400
H 	H 	0.38190 0.85890 0.42610 0.02700
H 	H 	0.37440 0.70320 0.07340 0.04700
H 	H 	0.27230 0.54710 0.03360 0.04700
H 	H 	0.61420 0.54840 0.08990 0.05900
H 	H 	0.60910 0.26090 0.05500 -0.00200
H 	H 	0.42220 0.26500 0.02160 0.03300
H 	H 	0.22480 0.00870 0.04210 0.07800
H 	H 	0.92100 0.18350 0.05480 -0.00700
H 	H 	0.10850 0.27460 0.04080 0.02200
H 	H 	0.04630 0.75620 0.07050 0.03800
H 	H 	0.88190 0.85890 0.07390 0.03000
H 	H 	0.12560 0.29680 0.57340 0.04900
H 	H 	0.22770 0.45290 0.53360 0.04800
H 	H 	0.88580 0.45160 0.58990 0.05800
H 	H 	0.89090 0.73910 0.55500 -0.00200
H 	H 	0.07780 0.73500 0.52160 0.03000
H 	H 	0.27520 0.99130 0.54210 0.07700
H 	H 	0.57900 0.81650 0.55480 0.00200
H 	H 	0.39150 0.72540 0.54080 0.02600
H 	H 	0.45370 0.24380 0.57050 0.03400
H 	H 	0.61810 0.14110 0.57390 0.02700
C 	C 	0.57130 0.58310 0.84725 0.36700
C 	C 	0.61280 0.39450 0.95781 -0.07000
C 	C 	0.49920 0.51540 0.91963 -0.16200
C 	C 	0.46800 0.66710 0.96938 -0.04600
C 	C 	0.85770 0.95770 0.85299 0.36900
C 	C 	0.88800 0.98170 0.93446 -0.16900
C 	C 	0.96770 0.82900 0.96820 -0.02500
C 	C 	0.00620 0.14690 0.94957 -0.07300
C 	C 	0.92870 0.41690 0.34725 0.36100
C 	C 	0.88720 0.60550 0.45781 -0.07500
C 	C 	0.00080 0.48460 0.41963 -0.15800
C 	C 	0.03200 0.33290 0.46938 -0.04100
C 	C 	0.64230 0.04230 0.35299 0.36900
C 	C 	0.61200 0.01830 0.43446 -0.17100
C 	C 	0.53230 0.17100 0.46820 -0.04200
C 	C 	0.49380 0.85310 0.44957 -0.06000
C 	C 	0.42870 0.41690 0.15275 0.36700
C 	C 	0.38720 0.60550 0.04219 -0.07000
C 	C 	0.50080 0.48460 0.08037 -0.16200
C 	C 	0.53200 0.33290 0.03062 -0.04600
C 	C 	0.14230 0.04230 0.14701 0.36900
C 	C 	0.11200 0.01830 0.06554 -0.16900
C 	C 	0.03230 0.17100 0.03180 -0.02500
C 	C 	0.99380 0.85310 0.05043 -0.07300
C 	C 	0.07130 0.58310 0.65275 0.36100
C 	C 	0.11280 0.39450 0.54219 -0.07500
C 	C 	0.99920 0.51540 0.58037 -0.15800
C 	C 	0.96800 0.66710 0.53062 -0.04100
C 	C 	0.35770 0.95770 0.64701 0.36900
C 	C 	0.38800 0.98170 0.56554 -0.17100
C 	C 	0.46770 0.82900 0.53180 -0.04200
C 	C 	0.50620 0.14690 0.55043 -0.06000
O 	O 	0.47368 0.66073 0.80637 -0.59900
O 	O 	0.72716 0.56732 0.82866 -0.42300
O 	O 	0.97295 0.90069 0.81390 -0.57300
O 	O 	0.71420 0.99262 0.82565 -0.43500
O 	O 	0.02632 0.33927 0.30637 -0.59400
O 	O 	0.77284 0.43268 0.32866 -0.42200
O 	O 	0.52705 0.09931 0.31390 -0.57600
O 	O 	0.78580 0.00738 0.32565 -0.43800
O 	O 	0.52632 0.33927 0.19363 -0.59900
O 	O 	0.27284 0.43268 0.17134 -0.42300
O 	O 	0.02705 0.09931 0.18610 -0.57300
O 	O 	0.28580 0.00738 0.17435 -0.43500
O 	O 	0.97368 0.66073 0.69363 -0.59400
O 	O 	0.22716 0.56732 0.67134 -0.42200
O 	O 	0.47295 0.90069 0.68610 -0.57600
O 	O 	0.21420 0.99262 0.67435 -0.43800
