data_crystal

_cell_length_a 6.92350
_cell_length_b 7.42680
_cell_length_c 8.25170
_cell_angle_alpha 90.11800
_cell_angle_beta  109.77400
_cell_angle_gamma 93.32900

_symmetry_space_group_name_	'P 1'
_symmetry_space_group_name_H-M	'P 1'

loop_
_symmetry_equiv_pos_as_xyz
  x,y,z

loop_
_atom_site_label
_atom_site_type_symbol
_atom_site_fract_x
_atom_site_fract_y
_atom_site_fract_z
_atom_site_charge
Zn	Zn	0.50000 0.00000 0.50000 1.15800
Zn	Zn	-0.00000 0.50000 0.50000 1.15400
H 	H 	0.57060 0.20450 0.96300 0.00900
H 	H 	0.42940 0.79550 0.03700 0.07000
C 	C 	0.54210 0.32300 0.97820 -0.00200
C 	C 	0.58130 0.39180 0.14380 -0.07500
C 	C 	0.54030 0.56990 0.16740 -0.07800
C 	C 	0.58090 0.66200 0.33970 0.36100
C 	C 	0.64740 0.26030 0.28810 0.36200
C 	C 	0.45790 0.67700 0.02180 0.03200
C 	C 	0.41870 0.60820 0.85620 -0.10100
C 	C 	0.45970 0.43010 0.83260 -0.10400
C 	C 	0.41910 0.33800 0.66030 0.36900
C 	C 	0.35260 0.73970 0.71190 0.36100
O 	O 	0.51052 0.14152 0.28891 -0.50200
O 	O 	0.82763 0.27024 0.39431 -0.41200
O 	O 	0.44762 0.76601 0.35007 -0.38800
O 	O 	0.74538 0.63864 0.46217 -0.37100
O 	O 	0.48948 0.85848 0.71109 -0.33900
O 	O 	0.17237 0.72976 0.60569 -0.49900
O 	O 	0.55238 0.23399 0.64993 -0.46300
O 	O 	0.25462 0.36136 0.53783 -0.54200
