data_crystal

_cell_length_a 17.20000
_cell_length_b 19.27800
_cell_length_c 19.71000
_cell_angle_alpha 112.79200
_cell_angle_beta  90.00000
_cell_angle_gamma 90.00000

_symmetry_space_group_name_	'P 1'
_symmetry_space_group_name_H-M	'P 1'

loop_
_symmetry_equiv_pos_as_xyz
  x,y,z

loop_
_atom_site_label
_atom_site_type_symbol
_atom_site_fract_x
_atom_site_fract_y
_atom_site_fract_z
_atom_site_charge
Zn	Zn	0.73204 0.98490 0.80259 1.19900
Zn	Zn	0.77502 0.46014 0.15780 1.20000
Zn	Zn	0.23204 0.01510 0.69741 1.20100
Zn	Zn	0.27502 0.53986 0.34220 1.20100
Zn	Zn	0.26796 0.01510 0.19741 1.20000
Zn	Zn	0.22498 0.53986 0.84220 1.20100
Zn	Zn	0.76796 0.98490 0.30259 1.20100
Zn	Zn	0.72498 0.46014 0.65780 1.20100
H 	H 	0.85600 0.30220 0.99090 0.15600
H 	H 	0.85290 0.29600 0.06800 0.12900
H 	H 	0.73220 0.27830 0.08160 0.13900
H 	H 	0.68670 0.28500 0.01540 0.15300
H 	H 	0.69590 0.41740 0.01210 0.07600
H 	H 	0.78300 0.43640 0.00460 0.07100
H 	H 	0.63480 0.30750 0.91450 0.06900
H 	H 	0.63360 0.23120 0.79170 0.03300
H 	H 	0.85570 0.28260 0.77470 0.04600
H 	H 	0.85770 0.35880 0.89700 0.08100
H 	H 	0.63030 0.21400 0.67010 0.02800
H 	H 	0.62830 0.13640 0.54780 0.07600
H 	H 	0.85290 0.08880 0.55810 0.09000
H 	H 	0.85550 0.16760 0.68010 0.04500
H 	H 	0.68710 0.02910 0.44770 0.08000
H 	H 	0.77420 0.00910 0.45410 0.07500
H 	H 	0.84410 0.14540 0.46880 0.15400
H 	H 	0.84430 0.15090 0.39140 0.12900
H 	H 	0.72040 0.17090 0.38100 0.14000
H 	H 	0.67420 0.15690 0.44310 0.14900
H 	H 	0.62800 0.55680 0.14290 0.02500
H 	H 	0.63850 0.67890 0.13120 0.03500
H 	H 	0.84880 0.60300 0.14110 -0.00100
H 	H 	0.84580 0.73230 0.13370 0.07600
H 	H 	0.76820 0.77660 0.16350 0.06900
H 	H 	0.67670 0.79340 0.07740 0.05800
H 	H 	0.64620 0.78530 0.96060 0.06700
H 	H 	0.82980 0.65420 0.88120 0.06000
H 	H 	0.86290 0.66460 0.99910 0.07500
H 	H 	0.73880 0.66700 0.79770 0.06900
H 	H 	0.66080 0.71110 0.82610 0.07500
H 	H 	0.86460 0.75440 0.80580 0.03400
H 	H 	0.87490 0.87570 0.79420 0.01900
H 	H 	0.65810 0.84740 0.83100 0.00100
H 	H 	0.59350 0.92450 0.69080 0.01200
H 	H 	0.79750 0.98910 0.64920 0.03500
H 	H 	0.72490 0.93840 0.53470 0.03600
H 	H 	0.53520 0.86540 0.56400 0.09100
H 	H 	0.59430 0.84730 0.49870 0.08000
H 	H 	0.51460 0.02110 0.62180 0.06900
H 	H 	0.54510 0.88920 0.41150 0.05500
H 	H 	0.90860 0.52620 0.26880 0.00500
H 	H 	0.70680 0.46270 0.31500 0.02600
H 	H 	0.77640 0.52220 0.43020 0.04200
H 	H 	0.90210 0.62500 0.45500 0.08500
H 	H 	0.96480 0.59430 0.39280 0.09800
H 	H 	0.93820 0.43230 0.39120 0.06600
H 	H 	0.00110 0.62910 0.54390 0.05600
H 	H 	0.35600 0.69780 0.50910 0.15500
H 	H 	0.35290 0.70400 0.43200 0.12900
H 	H 	0.23220 0.72170 0.41840 0.13900
H 	H 	0.18670 0.71500 0.48460 0.15400
H 	H 	0.19590 0.58260 0.48790 0.07600
H 	H 	0.28300 0.56360 0.49540 0.07200
H 	H 	0.13480 0.69250 0.58550 0.06900
H 	H 	0.13360 0.76880 0.70830 0.03300
H 	H 	0.35570 0.71740 0.72530 0.04600
H 	H 	0.35770 0.64120 0.60300 0.08100
H 	H 	0.13030 0.78600 0.82990 0.02800
H 	H 	0.12830 0.86360 0.95220 0.07600
H 	H 	0.35290 0.91120 0.94190 0.08900
H 	H 	0.35550 0.83240 0.81990 0.04500
H 	H 	0.18710 0.97090 0.05230 0.08100
H 	H 	0.27420 0.99090 0.04590 0.07500
H 	H 	0.34410 0.85460 0.03120 0.15400
H 	H 	0.34430 0.84910 0.10860 0.12800
H 	H 	0.22040 0.82910 0.11900 0.14000
H 	H 	0.17420 0.84310 0.05690 0.14900
H 	H 	0.12800 0.44320 0.35710 0.02500
H 	H 	0.13850 0.32110 0.36880 0.03500
H 	H 	0.34880 0.39700 0.35890 -0.00100
H 	H 	0.34580 0.26770 0.36630 0.07600
H 	H 	0.26820 0.22340 0.33650 0.06900
H 	H 	0.17670 0.20660 0.42260 0.05800
H 	H 	0.14620 0.21470 0.53940 0.06700
H 	H 	0.32980 0.34580 0.61880 0.06000
H 	H 	0.36290 0.33540 0.50090 0.07600
H 	H 	0.23880 0.33300 0.70230 0.06900
H 	H 	0.16080 0.28890 0.67390 0.07500
H 	H 	0.36460 0.24560 0.69420 0.03400
H 	H 	0.37490 0.12430 0.70580 0.02000
H 	H 	0.15810 0.15260 0.66900 0.00000
H 	H 	0.09350 0.07550 0.80920 0.01200
H 	H 	0.29750 0.01090 0.85080 0.03500
H 	H 	0.22490 0.06160 0.96530 0.03600
H 	H 	0.03520 0.13460 0.93600 0.09000
H 	H 	0.09430 0.15270 0.00130 0.07900
H 	H 	0.01460 0.97890 0.87820 0.06700
H 	H 	0.04510 0.11080 0.08850 0.05600
H 	H 	0.40860 0.47380 0.23120 0.00500
H 	H 	0.20680 0.53730 0.18500 0.02600
H 	H 	0.27640 0.47780 0.06980 0.04200
H 	H 	0.40210 0.37500 0.04500 0.08500
H 	H 	0.46480 0.40570 0.10720 0.09900
H 	H 	0.43820 0.56770 0.10880 0.06600
H 	H 	0.50110 0.37090 0.95610 0.05600
H 	H 	0.14400 0.69780 0.00910 0.15600
H 	H 	0.14710 0.70400 0.93200 0.12900
H 	H 	0.26780 0.72170 0.91840 0.13900
H 	H 	0.31330 0.71500 0.98460 0.15300
H 	H 	0.30410 0.58260 0.98790 0.07600
H 	H 	0.21700 0.56360 0.99540 0.07100
H 	H 	0.36520 0.69250 0.08550 0.06900
H 	H 	0.36640 0.76880 0.20830 0.03300
H 	H 	0.14430 0.71740 0.22530 0.04600
H 	H 	0.14230 0.64120 0.10300 0.08100
H 	H 	0.36970 0.78600 0.32990 0.02800
H 	H 	0.37170 0.86360 0.45220 0.07600
H 	H 	0.14710 0.91120 0.44190 0.09000
H 	H 	0.14450 0.83240 0.31990 0.04500
H 	H 	0.31290 0.97090 0.55230 0.08000
H 	H 	0.22580 0.99090 0.54590 0.07500
H 	H 	0.15590 0.85460 0.53120 0.15400
H 	H 	0.15570 0.84910 0.60860 0.12900
H 	H 	0.27960 0.82910 0.61900 0.14000
H 	H 	0.32580 0.84310 0.55690 0.14900
H 	H 	0.37200 0.44320 0.85710 0.02500
H 	H 	0.36150 0.32110 0.86880 0.03500
H 	H 	0.15120 0.39700 0.85890 -0.00100
H 	H 	0.15420 0.26770 0.86630 0.07600
H 	H 	0.23180 0.22340 0.83650 0.06900
H 	H 	0.32330 0.20660 0.92260 0.05800
H 	H 	0.35380 0.21470 0.03940 0.06700
H 	H 	0.17020 0.34580 0.11880 0.06000
H 	H 	0.13710 0.33540 0.00090 0.07500
H 	H 	0.26120 0.33300 0.20230 0.06900
H 	H 	0.33920 0.28890 0.17390 0.07500
H 	H 	0.13540 0.24560 0.19420 0.03400
H 	H 	0.12510 0.12430 0.20580 0.01900
H 	H 	0.34190 0.15260 0.16900 0.00100
H 	H 	0.40650 0.07550 0.30920 0.01200
H 	H 	0.20250 0.01090 0.35080 0.03500
H 	H 	0.27510 0.06160 0.46530 0.03600
H 	H 	0.46480 0.13460 0.43600 0.09100
H 	H 	0.40570 0.15270 0.50130 0.08000
H 	H 	0.48540 0.97890 0.37820 0.06900
H 	H 	0.45490 0.11080 0.58850 0.05500
H 	H 	0.09140 0.47380 0.73120 0.00500
H 	H 	0.29320 0.53730 0.68500 0.02600
H 	H 	0.22360 0.47780 0.56980 0.04200
H 	H 	0.09790 0.37500 0.54500 0.08500
H 	H 	0.03520 0.40570 0.60720 0.09800
H 	H 	0.06180 0.56770 0.60880 0.06600
H 	H 	0.99890 0.37090 0.45610 0.05600
H 	H 	0.64400 0.30220 0.49090 0.15500
H 	H 	0.64710 0.29600 0.56800 0.12900
H 	H 	0.76780 0.27830 0.58160 0.13900
H 	H 	0.81330 0.28500 0.51540 0.15400
H 	H 	0.80410 0.41740 0.51210 0.07600
H 	H 	0.71700 0.43640 0.50460 0.07200
H 	H 	0.86520 0.30750 0.41450 0.06900
H 	H 	0.86640 0.23120 0.29170 0.03300
H 	H 	0.64430 0.28260 0.27470 0.04600
H 	H 	0.64230 0.35880 0.39700 0.08100
H 	H 	0.86970 0.21400 0.17010 0.02800
H 	H 	0.87170 0.13640 0.04780 0.07600
H 	H 	0.64710 0.08880 0.05810 0.08900
H 	H 	0.64450 0.16760 0.18010 0.04500
H 	H 	0.81290 0.02910 0.94770 0.08100
H 	H 	0.72580 0.00910 0.95410 0.07500
H 	H 	0.65590 0.14540 0.96880 0.15400
H 	H 	0.65570 0.15090 0.89140 0.12800
H 	H 	0.77960 0.17090 0.88100 0.14000
H 	H 	0.82580 0.15690 0.94310 0.14900
H 	H 	0.87200 0.55680 0.64290 0.02500
H 	H 	0.86150 0.67890 0.63120 0.03500
H 	H 	0.65120 0.60300 0.64110 -0.00100
H 	H 	0.65420 0.73230 0.63370 0.07600
H 	H 	0.73180 0.77660 0.66350 0.06900
H 	H 	0.82330 0.79340 0.57740 0.05800
H 	H 	0.85380 0.78530 0.46060 0.06700
H 	H 	0.67020 0.65420 0.38120 0.06000
H 	H 	0.63710 0.66460 0.49910 0.07600
H 	H 	0.76120 0.66700 0.29770 0.06900
H 	H 	0.83920 0.71110 0.32610 0.07500
H 	H 	0.63540 0.75440 0.30580 0.03400
H 	H 	0.62510 0.87570 0.29420 0.02000
H 	H 	0.84190 0.84740 0.33100 0.00000
H 	H 	0.90650 0.92450 0.19080 0.01200
H 	H 	0.70250 0.98910 0.14920 0.03500
H 	H 	0.77510 0.93840 0.03470 0.03600
H 	H 	0.96480 0.86540 0.06400 0.09000
H 	H 	0.90570 0.84730 0.99870 0.07900
H 	H 	0.98540 0.02110 0.12180 0.06700
H 	H 	0.95490 0.88920 0.91150 0.05600
H 	H 	0.59140 0.52620 0.76880 0.00500
H 	H 	0.79320 0.46270 0.81500 0.02600
H 	H 	0.72360 0.52220 0.93020 0.04200
H 	H 	0.59790 0.62500 0.95500 0.08500
H 	H 	0.53520 0.59430 0.89280 0.09900
H 	H 	0.56180 0.43230 0.89120 0.06600
H 	H 	0.49890 0.62910 0.04390 0.05600
C 	C 	0.90960 0.39110 0.07190 0.38800
C 	C 	0.84812 0.33050 0.04318 -0.36600
C 	C 	0.64640 0.35680 0.11470 0.38900
C 	C 	0.70912 0.31361 0.06334 -0.37500
C 	C 	0.74741 0.39570 0.99971 -0.19300
C 	C 	0.74669 0.34231 0.92032 0.10400
C 	C 	0.67958 0.30280 0.88664 -0.12600
C 	C 	0.67894 0.25689 0.81265 -0.02500
C 	C 	0.74382 0.24837 0.76932 -0.00800
C 	C 	0.81101 0.28760 0.80277 -0.01700
C 	C 	0.81222 0.33331 0.87622 -0.12400
C 	C 	0.74281 0.19914 0.68962 -0.01900
C 	C 	0.67545 0.18894 0.64794 -0.01200
C 	C 	0.67430 0.14236 0.57425 -0.14000
C 	C 	0.73983 0.10462 0.53917 0.11900
C 	C 	0.80800 0.11427 0.58040 -0.13500
C 	C 	0.80929 0.16119 0.65386 -0.00600
C 	C 	0.73896 0.05019 0.45942 -0.21000
C 	C 	0.83829 0.11662 0.41638 -0.35800
C 	C 	0.90114 0.05680 0.39042 0.38300
C 	C 	0.69883 0.13221 0.39548 -0.36700
C 	C 	0.63815 0.08828 0.33971 0.39300
C 	C 	0.67400 0.58140 0.14120 0.00300
C 	C 	0.67950 0.64920 0.13490 -0.00600
C 	C 	0.79492 0.60675 0.14052 0.08700
C 	C 	0.78990 0.73126 0.12657 -0.12600
C 	C 	0.77190 0.72922 0.05033 0.06800
C 	C 	0.70810 0.76520 0.03800 -0.07000
C 	C 	0.68960 0.76010 0.96780 -0.07800
C 	C 	0.73460 0.71861 0.90933 0.07000
C 	C 	0.79890 0.68272 0.92091 -0.07000
C 	C 	0.81860 0.68830 0.99170 -0.07700
C 	C 	0.71670 0.71310 0.83319 -0.12900
C 	C 	0.82410 0.78750 0.80900 -0.00800
C 	C 	0.82920 0.85480 0.80307 0.00500
C 	C 	0.71120 0.83953 0.82272 0.08900
C 	C 	0.63580 0.93425 0.66647 0.08200
C 	C 	0.74730 0.96980 0.64370 -0.00000
C 	C 	0.70750 0.94160 0.58050 0.00100
C 	C 	0.57400 0.88710 0.54240 -0.14200
C 	C 	0.53630 0.94660 0.52097 0.07200
C 	C 	0.50900 0.01220 0.57220 -0.07600
C 	C 	0.52720 0.93380 0.44758 -0.08100
C 	C 	0.86700 0.51725 0.29440 0.07300
C 	C 	0.75666 0.48270 0.32000 0.01500
C 	C 	0.79460 0.51550 0.38360 -0.01300
C 	C 	0.92500 0.57940 0.41940 -0.14900
C 	C 	0.96292 0.53657 0.46006 0.07600
C 	C 	0.96310 0.46021 0.43523 -0.07900
C 	C 	0.00041 0.57682 0.52579 -0.07900
C 	C 	0.40960 0.60890 0.42810 0.38800
C 	C 	0.34812 0.66950 0.45682 -0.36500
C 	C 	0.14640 0.64320 0.38530 0.38900
C 	C 	0.20912 0.68639 0.43666 -0.37500
C 	C 	0.24741 0.60430 0.50029 -0.19400
C 	C 	0.24669 0.65769 0.57968 0.10500
C 	C 	0.17958 0.69720 0.61336 -0.12600
C 	C 	0.17894 0.74311 0.68735 -0.02500
C 	C 	0.24382 0.75163 0.73068 -0.00900
C 	C 	0.31101 0.71240 0.69723 -0.01700
C 	C 	0.31222 0.66669 0.62378 -0.12400
C 	C 	0.24281 0.80086 0.81038 -0.01900
C 	C 	0.17545 0.81106 0.85206 -0.01300
C 	C 	0.17430 0.85764 0.92575 -0.13900
C 	C 	0.23983 0.89538 0.96083 0.11700
C 	C 	0.30800 0.88573 0.91960 -0.13400
C 	C 	0.30929 0.83881 0.84614 -0.00700
C 	C 	0.23896 0.94981 0.04058 -0.20900
C 	C 	0.33829 0.88338 0.08362 -0.35700
C 	C 	0.40114 0.94320 0.10958 0.38200
C 	C 	0.19883 0.86779 0.10452 -0.36700
C 	C 	0.13815 0.91172 0.16029 0.39300
C 	C 	0.17400 0.41860 0.35880 0.00300
C 	C 	0.17950 0.35080 0.36510 -0.00600
C 	C 	0.29492 0.39325 0.35948 0.08700
C 	C 	0.28990 0.26874 0.37343 -0.12700
C 	C 	0.27190 0.27078 0.44967 0.06900
C 	C 	0.20810 0.23480 0.46200 -0.07100
C 	C 	0.18960 0.23990 0.53220 -0.07700
C 	C 	0.23460 0.28139 0.59067 0.07000
C 	C 	0.29890 0.31728 0.57909 -0.06900
C 	C 	0.31860 0.31170 0.50830 -0.07700
C 	C 	0.21670 0.28690 0.66681 -0.12900
C 	C 	0.32410 0.21250 0.69100 -0.00800
C 	C 	0.32920 0.14520 0.69693 0.00500
C 	C 	0.21120 0.16047 0.67728 0.08900
C 	C 	0.13580 0.06575 0.83353 0.08200
C 	C 	0.24730 0.03020 0.85630 -0.00000
C 	C 	0.20750 0.05840 0.91950 0.00200
C 	C 	0.07400 0.11290 0.95760 -0.14000
C 	C 	0.03630 0.05340 0.97903 0.06900
C 	C 	0.00900 0.98780 0.92780 -0.06900
C 	C 	0.02720 0.06620 0.05242 -0.08600
C 	C 	0.36700 0.48275 0.20560 0.07300
C 	C 	0.25666 0.51730 0.18000 0.01500
C 	C 	0.29460 0.48450 0.11640 -0.01300
C 	C 	0.42500 0.42060 0.08060 -0.15000
C 	C 	0.46292 0.46343 0.03994 0.07700
C 	C 	0.46310 0.53979 0.06477 -0.07900
C 	C 	0.50041 0.42318 0.97421 -0.07900
C 	C 	0.09040 0.60890 0.92810 0.38800
C 	C 	0.15188 0.66950 0.95682 -0.36600
C 	C 	0.35360 0.64320 0.88530 0.38900
C 	C 	0.29088 0.68639 0.93666 -0.37500
C 	C 	0.25259 0.60430 0.00029 -0.19300
C 	C 	0.25331 0.65769 0.07968 0.10400
C 	C 	0.32042 0.69720 0.11336 -0.12600
C 	C 	0.32106 0.74311 0.18735 -0.02500
C 	C 	0.25618 0.75163 0.23068 -0.00800
C 	C 	0.18899 0.71240 0.19723 -0.01700
C 	C 	0.18778 0.66669 0.12378 -0.12400
C 	C 	0.25719 0.80086 0.31038 -0.01900
C 	C 	0.32455 0.81106 0.35206 -0.01200
C 	C 	0.32570 0.85764 0.42575 -0.14000
C 	C 	0.26017 0.89538 0.46083 0.11900
C 	C 	0.19200 0.88573 0.41960 -0.13500
C 	C 	0.19071 0.83881 0.34614 -0.00600
C 	C 	0.26104 0.94981 0.54058 -0.21000
C 	C 	0.16171 0.88338 0.58362 -0.35800
C 	C 	0.09886 0.94320 0.60958 0.38300
C 	C 	0.30117 0.86779 0.60452 -0.36700
C 	C 	0.36185 0.91172 0.66029 0.39300
C 	C 	0.32600 0.41860 0.85880 0.00300
C 	C 	0.32050 0.35080 0.86510 -0.00600
C 	C 	0.20508 0.39325 0.85948 0.08700
C 	C 	0.21010 0.26874 0.87343 -0.12600
C 	C 	0.22810 0.27078 0.94967 0.06800
C 	C 	0.29190 0.23480 0.96200 -0.07000
C 	C 	0.31040 0.23990 0.03220 -0.07800
C 	C 	0.26540 0.28139 0.09067 0.07000
C 	C 	0.20110 0.31728 0.07909 -0.07000
C 	C 	0.18140 0.31170 0.00830 -0.07700
C 	C 	0.28330 0.28690 0.16681 -0.12900
C 	C 	0.17590 0.21250 0.19100 -0.00800
C 	C 	0.17080 0.14520 0.19693 0.00500
C 	C 	0.28880 0.16047 0.17728 0.08900
C 	C 	0.36420 0.06575 0.33353 0.08200
C 	C 	0.25270 0.03020 0.35630 -0.00000
C 	C 	0.29250 0.05840 0.41950 0.00100
C 	C 	0.42600 0.11290 0.45760 -0.14200
C 	C 	0.46370 0.05340 0.47903 0.07200
C 	C 	0.49100 0.98780 0.42780 -0.07600
C 	C 	0.47280 0.06620 0.55242 -0.08100
C 	C 	0.13300 0.48275 0.70560 0.07300
C 	C 	0.24334 0.51730 0.68000 0.01500
C 	C 	0.20540 0.48450 0.61640 -0.01300
C 	C 	0.07500 0.42060 0.58060 -0.14900
C 	C 	0.03708 0.46343 0.53994 0.07600
C 	C 	0.03690 0.53979 0.56477 -0.07900
C 	C 	0.99959 0.42318 0.47421 -0.07900
C 	C 	0.59040 0.39110 0.57190 0.38800
C 	C 	0.65188 0.33050 0.54318 -0.36500
C 	C 	0.85360 0.35680 0.61470 0.38900
C 	C 	0.79088 0.31361 0.56334 -0.37500
C 	C 	0.75259 0.39570 0.49971 -0.19400
C 	C 	0.75331 0.34231 0.42032 0.10500
C 	C 	0.82042 0.30280 0.38664 -0.12600
C 	C 	0.82106 0.25689 0.31265 -0.02500
C 	C 	0.75618 0.24837 0.26932 -0.00900
C 	C 	0.68899 0.28760 0.30277 -0.01700
C 	C 	0.68778 0.33331 0.37622 -0.12400
C 	C 	0.75719 0.19914 0.18962 -0.01900
C 	C 	0.82455 0.18894 0.14794 -0.01300
C 	C 	0.82570 0.14236 0.07425 -0.13900
C 	C 	0.76017 0.10462 0.03917 0.11700
C 	C 	0.69200 0.11427 0.08040 -0.13400
C 	C 	0.69071 0.16119 0.15386 -0.00700
C 	C 	0.76104 0.05019 0.95942 -0.20900
C 	C 	0.66171 0.11662 0.91638 -0.35700
C 	C 	0.59886 0.05680 0.89042 0.38200
C 	C 	0.80117 0.13221 0.89548 -0.36700
C 	C 	0.86185 0.08828 0.83971 0.39300
C 	C 	0.82600 0.58140 0.64120 0.00300
C 	C 	0.82050 0.64920 0.63490 -0.00600
C 	C 	0.70508 0.60675 0.64052 0.08700
C 	C 	0.71010 0.73126 0.62657 -0.12700
C 	C 	0.72810 0.72922 0.55033 0.06900
C 	C 	0.79190 0.76520 0.53800 -0.07100
C 	C 	0.81040 0.76010 0.46780 -0.07700
C 	C 	0.76540 0.71861 0.40933 0.07000
C 	C 	0.70110 0.68272 0.42091 -0.06900
C 	C 	0.68140 0.68830 0.49170 -0.07700
C 	C 	0.78330 0.71310 0.33319 -0.12900
C 	C 	0.67590 0.78750 0.30900 -0.00800
C 	C 	0.67080 0.85480 0.30307 0.00500
C 	C 	0.78880 0.83953 0.32272 0.08900
C 	C 	0.86420 0.93425 0.16647 0.08200
C 	C 	0.75270 0.96980 0.14370 -0.00000
C 	C 	0.79250 0.94160 0.08050 0.00200
C 	C 	0.92600 0.88710 0.04240 -0.14000
C 	C 	0.96370 0.94660 0.02097 0.06900
C 	C 	0.99100 0.01220 0.07220 -0.06900
C 	C 	0.97280 0.93380 0.94758 -0.08600
C 	C 	0.63300 0.51725 0.79440 0.07300
C 	C 	0.74334 0.48270 0.82000 0.01500
C 	C 	0.70540 0.51550 0.88360 -0.01300
C 	C 	0.57500 0.57940 0.91940 -0.15000
C 	C 	0.53708 0.53657 0.96006 0.07700
C 	C 	0.53690 0.46021 0.93523 -0.07900
C 	C 	0.49959 0.57682 0.02579 -0.07900
N 	N 	0.76994 0.36379 0.05562 -0.10500
N 	N 	0.76208 0.08393 0.40200 -0.10500
N 	N 	0.74700 0.55572 0.14469 -0.26300
N 	N 	0.75694 0.66493 0.13526 -0.10400
N 	N 	0.74852 0.77801 0.82056 -0.10500
N 	N 	0.75831 0.88729 0.81188 -0.26600
N 	N 	0.70149 0.96544 0.69927 -0.26300
N 	N 	0.63767 0.91876 0.59532 -0.10200
N 	N 	0.80183 0.48291 0.26359 -0.26200
N 	N 	0.86476 0.53727 0.36727 -0.09900
N 	N 	0.26994 0.63621 0.44438 -0.10500
N 	N 	0.26208 0.91607 0.09800 -0.10500
N 	N 	0.24700 0.44428 0.35531 -0.26300
N 	N 	0.25694 0.33507 0.36474 -0.10400
N 	N 	0.24852 0.22199 0.67944 -0.10500
N 	N 	0.25831 0.11271 0.68812 -0.26500
N 	N 	0.20149 0.03456 0.80073 -0.26300
N 	N 	0.13767 0.08124 0.90468 -0.10300
N 	N 	0.30183 0.51709 0.23641 -0.26200
N 	N 	0.36476 0.46273 0.13273 -0.09900
N 	N 	0.23006 0.63621 0.94438 -0.10500
N 	N 	0.23792 0.91607 0.59800 -0.10500
N 	N 	0.25300 0.44428 0.85531 -0.26300
N 	N 	0.24306 0.33507 0.86474 -0.10400
N 	N 	0.25148 0.22199 0.17944 -0.10500
N 	N 	0.24169 0.11271 0.18812 -0.26600
N 	N 	0.29851 0.03456 0.30073 -0.26300
N 	N 	0.36233 0.08124 0.40468 -0.10200
N 	N 	0.19817 0.51709 0.73641 -0.26200
N 	N 	0.13524 0.46273 0.63273 -0.09900
N 	N 	0.73006 0.36379 0.55562 -0.10500
N 	N 	0.73792 0.08393 0.90200 -0.10500
N 	N 	0.75300 0.55572 0.64469 -0.26300
N 	N 	0.74306 0.66493 0.63526 -0.10400
N 	N 	0.75148 0.77801 0.32056 -0.10500
N 	N 	0.74169 0.88729 0.31188 -0.26500
N 	N 	0.79851 0.96544 0.19927 -0.26300
N 	N 	0.86233 0.91876 0.09532 -0.10300
N 	N 	0.69817 0.48291 0.76359 -0.26200
N 	N 	0.63524 0.53727 0.86727 -0.09900
O 	O 	0.89047 0.45256 0.12188 -0.43700
O 	O 	0.97697 0.37448 0.04648 -0.26900
O 	O 	0.66242 0.42196 0.16167 -0.43900
O 	O 	0.58209 0.32530 0.11098 -0.27500
O 	O 	0.96741 0.07445 0.41587 -0.26100
O 	O 	0.88291 0.99307 0.34189 -0.42600
O 	O 	0.57614 0.12062 0.33883 -0.27500
O 	O 	0.65541 0.02264 0.29574 -0.43700
O 	O 	0.39047 0.54744 0.37812 -0.43700
O 	O 	0.47697 0.62552 0.45352 -0.26900
O 	O 	0.16242 0.57804 0.33833 -0.43900
O 	O 	0.08209 0.67470 0.38902 -0.27500
O 	O 	0.46741 0.92555 0.08413 -0.26100
O 	O 	0.38291 0.00693 0.15811 -0.42500
O 	O 	0.07614 0.87938 0.16117 -0.27400
O 	O 	0.15541 0.97736 0.20426 -0.43600
O 	O 	0.10953 0.54744 0.87812 -0.43700
O 	O 	0.02303 0.62552 0.95352 -0.26900
O 	O 	0.33758 0.57804 0.83833 -0.43900
O 	O 	0.41791 0.67470 0.88902 -0.27500
O 	O 	0.03259 0.92555 0.58413 -0.26100
O 	O 	0.11709 0.00693 0.65811 -0.42600
O 	O 	0.42386 0.87938 0.66117 -0.27500
O 	O 	0.34459 0.97736 0.70426 -0.43700
O 	O 	0.60953 0.45256 0.62188 -0.43700
O 	O 	0.52303 0.37448 0.54648 -0.26900
O 	O 	0.83758 0.42196 0.66167 -0.43900
O 	O 	0.91791 0.32530 0.61098 -0.27500
O 	O 	0.53259 0.07445 0.91587 -0.26100
O 	O 	0.61709 0.99307 0.84189 -0.42500
O 	O 	0.92386 0.12062 0.83883 -0.27400
O 	O 	0.84459 0.02264 0.79574 -0.43600
