data_crystal

_cell_length_a 4.78900
_cell_length_b 11.77100
_cell_length_c 26.32900
_cell_angle_alpha 96.82200
_cell_angle_beta  90.00000
_cell_angle_gamma 90.00000

_symmetry_space_group_name_	'P 1'
_symmetry_space_group_name_H-M	'P 1'

loop_
_symmetry_equiv_pos_as_xyz
  x,y,z

loop_
_atom_site_label
_atom_site_type_symbol
_atom_site_fract_x
_atom_site_fract_y
_atom_site_fract_z
_atom_site_charge
Zn	Zn	0.29553 0.09541 0.55064 1.22500
Zn	Zn	0.27738 0.82415 0.97052 1.22600
Zn	Zn	0.79553 0.90459 0.44936 1.21900
Zn	Zn	0.77738 0.17585 0.02948 1.22700
H 	H 	0.78980 0.25670 0.42050 0.03200
H 	H 	0.90020 0.28710 0.33750 0.06400
H 	H 	0.36110 0.04230 0.28340 0.06300
H 	H 	0.77120 0.95810 0.23210 0.06000
H 	H 	0.63040 0.83380 0.16370 0.03800
H 	H 	0.46540 0.21820 0.16370 0.04400
H 	H 	0.33190 0.23950 0.65670 0.01200
H 	H 	0.81860 0.29020 0.54650 0.01300
H 	H 	0.76420 0.44970 0.61380 0.04500
H 	H 	0.12040 0.52340 0.69400 0.08600
H 	H 	0.30190 0.42680 0.71360 0.08300
H 	H 	0.88820 0.25800 0.73430 0.06700
H 	H 	0.59070 0.24210 0.80120 0.06500
H 	H 	0.53830 0.58210 0.82770 0.07200
H 	H 	0.84060 0.59780 0.76050 0.07000
H 	H 	0.14410 0.40160 0.85370 0.08900
H 	H 	0.36290 0.32470 0.87790 0.09100
H 	H 	0.08730 0.60950 0.89700 -0.00500
H 	H 	0.69020 0.62030 0.99840 0.02000
H 	H 	0.71330 0.43320 0.94720 0.05600
H 	H 	0.28980 0.74330 0.57950 0.05500
H 	H 	0.40020 0.71290 0.66250 0.06100
H 	H 	0.86110 0.95770 0.71660 0.05800
H 	H 	0.27120 0.04190 0.76790 0.06500
H 	H 	0.13040 0.16620 0.83630 0.04100
H 	H 	0.96540 0.78180 0.83630 0.04500
H 	H 	0.83190 0.76050 0.34330 0.00400
H 	H 	0.31860 0.70980 0.45350 0.01500
H 	H 	0.26420 0.55030 0.38620 0.05000
H 	H 	0.62040 0.47660 0.30600 0.08600
H 	H 	0.80190 0.57320 0.28640 0.08200
H 	H 	0.38820 0.74200 0.26570 0.07400
H 	H 	0.09070 0.75790 0.19880 0.06400
H 	H 	0.03830 0.41790 0.17230 0.07000
H 	H 	0.34060 0.40220 0.23950 0.07800
H 	H 	0.64410 0.59840 0.14630 0.08900
H 	H 	0.86290 0.67530 0.12210 0.09200
H 	H 	0.58730 0.39050 0.10300 -0.00400
H 	H 	0.19020 0.37970 0.00160 0.02000
H 	H 	0.21330 0.56680 0.05280 0.05500
C 	C 	0.44500 0.11630 0.45674 0.37700
C 	C 	0.50590 0.13110 0.40192 -0.09900
C 	C 	0.70320 0.21350 0.39305 0.01300
C 	C 	0.77080 0.23110 0.34332 -0.07100
C 	C 	0.64540 0.16530 0.30199 0.00400
C 	C 	0.44770 0.08500 0.31101 -0.04200
C 	C 	0.37440 0.06630 0.36086 -0.04400
C 	C 	0.15730 0.97900 0.36766 0.33500
C 	C 	0.71450 0.18840 0.24894 0.12100
C 	C 	0.62980 0.10200 0.20527 -0.00300
C 	C 	0.68090 0.98540 0.20476 -0.06300
C 	C 	0.59680 0.91160 0.16358 -0.00200
C 	C 	0.46400 0.94800 0.12182 -0.04800
C 	C 	0.41010 0.06570 0.12245 -0.07600
C 	C 	0.49680 0.14020 0.16372 -0.01400
C 	C 	0.25470 0.11390 0.08033 0.38100
C 	C 	0.38690 0.86360 0.07667 0.34400
C 	C 	0.19830 0.27230 0.63738 0.08400
C 	C 	0.91650 0.29980 0.57720 -0.00700
C 	C 	0.88650 0.38850 0.61420 -0.02700
C 	C 	0.11910 0.44410 0.70059 -0.12500
C 	C 	0.90400 0.42970 0.74101 0.05700
C 	C 	0.82100 0.32390 0.75337 -0.06600
C 	C 	0.64100 0.31430 0.79333 -0.07900
C 	C 	0.53370 0.41060 0.82195 0.07500
C 	C 	0.60980 0.51630 0.80919 -0.07200
C 	C 	0.79270 0.52570 0.76885 -0.07000
C 	C 	0.33480 0.39860 0.86582 -0.14100
C 	C 	0.24000 0.58980 0.91589 0.08200
C 	C 	0.57180 0.59470 0.97148 0.01700
C 	C 	0.58590 0.49120 0.94336 -0.01900
C 	C 	0.94500 0.88370 0.54326 0.29900
C 	C 	0.00590 0.86890 0.59808 -0.01800
C 	C 	0.20320 0.78650 0.60695 -0.02600
C 	C 	0.27080 0.76890 0.65668 -0.04500
C 	C 	0.14540 0.83470 0.69801 0.00600
C 	C 	0.94770 0.91500 0.68899 -0.03900
C 	C 	0.87440 0.93370 0.63914 -0.09500
C 	C 	0.65730 0.02100 0.63234 0.35100
C 	C 	0.21450 0.81160 0.75106 0.12300
C 	C 	0.12980 0.89800 0.79473 -0.00000
C 	C 	0.18090 0.01460 0.79524 -0.06100
C 	C 	0.09680 0.08840 0.83642 -0.01000
C 	C 	0.96400 0.05200 0.87818 -0.04200
C 	C 	0.91010 0.93430 0.87755 -0.07800
C 	C 	0.99680 0.85980 0.83628 -0.01700
C 	C 	0.75470 0.88610 0.91967 0.38600
C 	C 	0.88690 0.13640 0.92333 0.34200
C 	C 	0.69830 0.72770 0.36262 0.07700
C 	C 	0.41650 0.70020 0.42280 0.01600
C 	C 	0.38650 0.61150 0.38580 -0.01600
C 	C 	0.61910 0.55590 0.29941 -0.14100
C 	C 	0.40400 0.57030 0.25899 0.07800
C 	C 	0.32100 0.67610 0.24663 -0.07700
C 	C 	0.14100 0.68570 0.20667 -0.07000
C 	C 	0.03370 0.58940 0.17805 0.07200
C 	C 	0.10980 0.48370 0.19081 -0.06300
C 	C 	0.29270 0.47430 0.23115 -0.08100
C 	C 	0.83480 0.60140 0.13418 -0.14500
C 	C 	0.74000 0.41020 0.08411 0.08300
C 	C 	0.07180 0.40530 0.02852 0.01100
C 	C 	0.08590 0.50880 0.05664 -0.02000
N 	N 	0.11300 0.22610 0.59188 -0.25100
N 	N 	0.07080 0.37130 0.65241 -0.09100
N 	N 	0.37670 0.48860 0.90814 -0.09700
N 	N 	0.35420 0.65640 0.95407 -0.25700
N 	N 	0.61300 0.77390 0.40812 -0.26800
N 	N 	0.57080 0.62870 0.34759 -0.09900
N 	N 	0.87670 0.51140 0.09186 -0.09500
N 	N 	0.85420 0.34360 0.04593 -0.25400
O 	O 	0.30490 0.18690 0.48452 -0.40800
O 	O 	0.55670 0.03540 0.47638 -0.54600
O 	O 	0.08460 0.97480 0.41411 -0.46000
O 	O 	0.06400 0.91750 0.33056 -0.27900
O 	O 	0.83000 0.27670 0.24151 -0.21700
O 	O 	0.99190 0.10400 0.08094 -0.44300
O 	O 	0.38070 0.17000 0.04997 -0.50600
O 	O 	0.38160 0.76140 0.08066 -0.31300
O 	O 	0.33880 0.90840 0.03598 -0.47600
O 	O 	0.80490 0.81310 0.51548 -0.40300
O 	O 	0.05670 0.96460 0.52362 -0.49800
O 	O 	0.58460 0.02520 0.58589 -0.48100
O 	O 	0.56400 0.08250 0.66944 -0.29300
O 	O 	0.33000 0.72330 0.75849 -0.21300
O 	O 	0.49190 0.89600 0.91906 -0.44900
O 	O 	0.88070 0.83000 0.95003 -0.50400
O 	O 	0.88160 0.23860 0.91934 -0.31100
O 	O 	0.83880 0.09160 0.96402 -0.47200
