data_crystal

_cell_length_a 9.45370
_cell_length_b 18.77320
_cell_length_c 18.77320
_cell_angle_alpha 90.00000
_cell_angle_beta  90.00000
_cell_angle_gamma 90.00000

_symmetry_space_group_name_	'P 1'
_symmetry_space_group_name_H-M	'P 1'

loop_
_symmetry_equiv_pos_as_xyz
  x,y,z

loop_
_atom_site_label
_atom_site_type_symbol
_atom_site_fract_x
_atom_site_fract_y
_atom_site_fract_z
_atom_site_charge
Al	Al	0.91910 0.93588 0.33432 2.39300
Al	Al	0.84220 0.83599 0.54423 2.39000
Al	Al	0.66420 0.05070 0.56519 2.39400
Al	Al	0.91910 0.56412 0.16568 2.39400
Al	Al	0.84220 0.66401 0.95577 2.39000
Al	Al	0.66420 0.44930 0.93481 2.39400
Al	Al	0.91910 0.16568 0.93588 2.39300
Al	Al	0.84220 0.95577 0.83599 2.39000
Al	Al	0.66420 0.93481 0.05070 2.39300
Al	Al	0.91910 0.33432 0.56412 2.39300
Al	Al	0.84220 0.54423 0.66401 2.39000
Al	Al	0.66420 0.56519 0.44930 2.39400
Al	Al	0.08090 0.06412 0.66568 2.39300
Al	Al	0.15780 0.16401 0.45577 2.39000
Al	Al	0.33580 0.94930 0.43481 2.39400
Al	Al	0.08090 0.43588 0.83432 2.39400
Al	Al	0.15780 0.33599 0.04423 2.39000
Al	Al	0.33580 0.55070 0.06519 2.39400
Al	Al	0.08090 0.83432 0.06412 2.39300
Al	Al	0.15780 0.04423 0.16401 2.39000
Al	Al	0.33580 0.06519 0.94930 2.39300
Al	Al	0.08090 0.66568 0.43588 2.39300
Al	Al	0.15780 0.45577 0.33599 2.39000
Al	Al	0.33580 0.43481 0.55070 2.39400
P 	P 	0.66370 0.93587 0.44232 0.83600
P 	P 	0.83780 0.94979 0.66685 0.83000
P 	P 	0.90580 0.16580 0.56624 0.84300
P 	P 	0.66370 0.56413 0.05768 0.83800
P 	P 	0.83780 0.55021 0.83315 0.83000
P 	P 	0.90580 0.33420 0.93376 0.83600
P 	P 	0.66370 0.05768 0.93587 0.82800
P 	P 	0.83780 0.83315 0.94979 0.83000
P 	P 	0.90580 0.93376 0.16580 0.83200
P 	P 	0.66370 0.44232 0.56413 0.83800
P 	P 	0.83780 0.66685 0.55021 0.83000
P 	P 	0.90580 0.56624 0.33420 0.84300
P 	P 	0.33630 0.06413 0.55768 0.83600
P 	P 	0.16220 0.05021 0.33315 0.83000
P 	P 	0.09420 0.83420 0.43376 0.84300
P 	P 	0.33630 0.43587 0.94232 0.83800
P 	P 	0.16220 0.44979 0.16685 0.83000
P 	P 	0.09420 0.66580 0.06624 0.83600
P 	P 	0.33630 0.94232 0.06413 0.82800
P 	P 	0.16220 0.16685 0.05021 0.83000
P 	P 	0.09420 0.06624 0.83420 0.83200
P 	P 	0.33630 0.55768 0.43587 0.83800
P 	P 	0.16220 0.33315 0.44979 0.83000
P 	P 	0.09420 0.43376 0.66580 0.84300
O 	O 	0.75370 0.94260 0.37570 -0.79200
O 	O 	0.51220 0.92460 0.41930 -0.77000
O 	O 	0.70970 0.87270 0.48720 -0.82600
O 	O 	0.67610 0.00500 0.48380 -0.84800
O 	O 	0.98110 0.98490 0.65670 -0.84900
O 	O 	0.72250 0.99740 0.63590 -0.83400
O 	O 	0.84020 0.87790 0.62920 -0.77300
O 	O 	0.80680 0.93760 0.74420 -0.76700
O 	O 	0.98730 0.15510 0.49790 -0.82900
O 	O 	0.98540 0.13700 0.62970 -0.83200
O 	O 	0.76370 0.12970 0.55990 -0.78700
O 	O 	0.87930 0.24440 0.57950 -0.77800
O 	O 	0.75370 0.55740 0.12430 -0.78900
O 	O 	0.51220 0.57540 0.08070 -0.77000
O 	O 	0.70970 0.62730 0.01280 -0.82700
O 	O 	0.67610 0.49500 0.01620 -0.84900
O 	O 	0.98110 0.51510 0.84330 -0.84900
O 	O 	0.72250 0.50260 0.86410 -0.83500
O 	O 	0.84020 0.62210 0.87080 -0.77400
O 	O 	0.80680 0.56240 0.75580 -0.76800
O 	O 	0.98730 0.34490 0.00210 -0.82100
O 	O 	0.98540 0.36300 0.87030 -0.83400
O 	O 	0.76370 0.37030 0.94010 -0.78800
O 	O 	0.87930 0.25560 0.92050 -0.78000
O 	O 	0.75370 0.12430 0.94260 -0.79300
O 	O 	0.51220 0.08070 0.92460 -0.77200
O 	O 	0.70970 0.01280 0.87270 -0.82900
O 	O 	0.67610 0.01620 0.00500 -0.83600
O 	O 	0.98110 0.84330 0.98490 -0.84800
O 	O 	0.72250 0.86410 0.99740 -0.83100
O 	O 	0.84020 0.87080 0.87790 -0.77300
O 	O 	0.80680 0.75580 0.93760 -0.76700
O 	O 	0.98730 0.00210 0.15510 -0.81600
O 	O 	0.98540 0.87030 0.13700 -0.83300
O 	O 	0.76370 0.94010 0.12970 -0.79000
O 	O 	0.87930 0.92050 0.24440 -0.77900
O 	O 	0.75370 0.37570 0.55740 -0.79000
O 	O 	0.51220 0.41930 0.57540 -0.76900
O 	O 	0.70970 0.48720 0.62730 -0.82600
O 	O 	0.67610 0.48380 0.49500 -0.85100
O 	O 	0.98110 0.65670 0.51510 -0.84800
O 	O 	0.72250 0.63590 0.50260 -0.83400
O 	O 	0.84020 0.62920 0.62210 -0.77300
O 	O 	0.80680 0.74420 0.56240 -0.76800
O 	O 	0.98730 0.49790 0.34490 -0.83000
O 	O 	0.98540 0.62970 0.36300 -0.83300
O 	O 	0.76370 0.55990 0.37030 -0.78700
O 	O 	0.87930 0.57950 0.25560 -0.77700
O 	O 	0.24630 0.05740 0.62430 -0.79200
O 	O 	0.48780 0.07540 0.58070 -0.77000
O 	O 	0.29030 0.12730 0.51280 -0.82600
O 	O 	0.32390 0.99500 0.51620 -0.84800
O 	O 	0.01890 0.01510 0.34330 -0.84900
O 	O 	0.27750 0.00260 0.36410 -0.83400
O 	O 	0.15980 0.12210 0.37080 -0.77300
O 	O 	0.19320 0.06240 0.25580 -0.76700
O 	O 	0.01270 0.84490 0.50210 -0.82900
O 	O 	0.01460 0.86300 0.37030 -0.83200
O 	O 	0.23630 0.87030 0.44010 -0.78700
O 	O 	0.12070 0.75560 0.42050 -0.77800
O 	O 	0.24630 0.44260 0.87570 -0.78900
O 	O 	0.48780 0.42460 0.91930 -0.77000
O 	O 	0.29030 0.37270 0.98720 -0.82700
O 	O 	0.32390 0.50500 0.98380 -0.84900
O 	O 	0.01890 0.48490 0.15670 -0.84900
O 	O 	0.27750 0.49740 0.13590 -0.83500
O 	O 	0.15980 0.37790 0.12920 -0.77400
O 	O 	0.19320 0.43760 0.24420 -0.76800
O 	O 	0.01270 0.65510 0.99790 -0.82100
O 	O 	0.01460 0.63700 0.12970 -0.83400
O 	O 	0.23630 0.62970 0.05990 -0.78800
O 	O 	0.12070 0.74440 0.07950 -0.78000
O 	O 	0.24630 0.87570 0.05740 -0.79300
O 	O 	0.48780 0.91930 0.07540 -0.77200
O 	O 	0.29030 0.98720 0.12730 -0.82900
O 	O 	0.32390 0.98380 0.99500 -0.83600
O 	O 	0.01890 0.15670 0.01510 -0.84800
O 	O 	0.27750 0.13590 0.00260 -0.83100
O 	O 	0.15980 0.12920 0.12210 -0.77300
O 	O 	0.19320 0.24420 0.06240 -0.76700
O 	O 	0.01270 0.99790 0.84490 -0.81600
O 	O 	0.01460 0.12970 0.86300 -0.83300
O 	O 	0.23630 0.05990 0.87030 -0.79000
O 	O 	0.12070 0.07950 0.75560 -0.77900
O 	O 	0.24630 0.62430 0.44260 -0.79000
O 	O 	0.48780 0.58070 0.42460 -0.76900
O 	O 	0.29030 0.51280 0.37270 -0.82600
O 	O 	0.32390 0.51620 0.50500 -0.85100
O 	O 	0.01890 0.34330 0.48490 -0.84800
O 	O 	0.27750 0.36410 0.49740 -0.83400
O 	O 	0.15980 0.37080 0.37790 -0.77300
O 	O 	0.19320 0.25580 0.43760 -0.76800
O 	O 	0.01270 0.50210 0.65510 -0.83000
O 	O 	0.01460 0.37030 0.63700 -0.83300
O 	O 	0.23630 0.44010 0.62970 -0.78700
O 	O 	0.12070 0.42050 0.74440 -0.77700
