data_crystal

_cell_length_a 6.74230
_cell_length_b 21.17600
_cell_length_c 21.18690
_cell_angle_alpha 119.98300
_cell_angle_beta  90.00000
_cell_angle_gamma 90.00000

_symmetry_space_group_name_	'P 1'
_symmetry_space_group_name_H-M	'P 1'

loop_
_symmetry_equiv_pos_as_xyz
  x,y,z

loop_
_atom_site_label
_atom_site_type_symbol
_atom_site_fract_x
_atom_site_fract_y
_atom_site_fract_z
_atom_site_charge
Ga	Ga	0.50000 0.50000 0.50000 2.09000
Ga	Ga	-0.00000 0.50000 0.50000 2.06600
Ga	Ga	-0.00000 0.00000 0.50000 2.01300
Ga	Ga	0.50000 0.00000 0.50000 2.03600
Ga	Ga	0.50000 0.00000 -0.00000 2.01200
Ga	Ga	-0.00000 0.00000 -0.00000 1.98800
H 	H 	0.44430 0.67853 0.46946 0.03700
H 	H 	0.44430 0.32248 0.29356 0.03100
H 	H 	0.44430 0.20768 0.18388 0.01800
H 	H 	0.94430 0.32147 0.53054 0.17300
H 	H 	0.94430 0.67752 0.70644 0.17500
H 	H 	0.94430 0.79232 0.81612 0.19700
H 	H 	0.05570 0.79093 0.46946 -0.05900
H 	H 	0.05570 0.97108 0.29356 -0.05800
H 	H 	0.05570 0.97620 0.18388 -0.04600
H 	H 	0.55570 0.20907 0.53054 0.04300
H 	H 	0.55570 0.02892 0.70644 0.04000
H 	H 	0.55570 0.02380 0.81612 0.04000
H 	H 	0.55570 0.32147 0.53054 0.05800
H 	H 	0.55570 0.67752 0.70644 0.06300
H 	H 	0.55570 0.79232 0.81612 0.08600
H 	H 	0.05570 0.67853 0.46946 -0.07800
H 	H 	0.05570 0.32248 0.29356 -0.08600
H 	H 	0.05570 0.20768 0.18388 -0.09900
H 	H 	0.94430 0.20907 0.53054 0.15800
H 	H 	0.94430 0.02892 0.70644 0.15400
H 	H 	0.94430 0.02380 0.81612 0.15200
H 	H 	0.44430 0.79093 0.46946 0.05500
H 	H 	0.44430 0.97108 0.29356 0.05600
H 	H 	0.44430 0.97620 0.18388 0.06800
C 	C 	0.57018 0.70167 0.46946 0.02700
C 	C 	0.57018 0.29885 0.27098 -0.00600
C 	C 	0.57018 0.23132 0.20646 0.00800
C 	C 	0.07018 0.29833 0.53054 -0.15200
C 	C 	0.07018 0.70115 0.72902 -0.11700
C 	C 	0.07018 0.76868 0.79354 -0.13600
C 	C 	0.92982 0.76779 0.46946 0.14300
C 	C 	0.92982 0.97213 0.27098 0.16500
C 	C 	0.92982 0.97514 0.20646 0.15100
C 	C 	0.42982 0.23221 0.53054 -0.00300
C 	C 	0.42982 0.02787 0.72902 -0.02000
C 	C 	0.42982 0.02486 0.79354 -0.01300
C 	C 	0.42982 0.29833 0.53054 -0.01600
C 	C 	0.42982 0.70115 0.72902 0.01700
C 	C 	0.42982 0.76868 0.79354 -0.00500
C 	C 	0.92982 0.70167 0.46946 0.16400
C 	C 	0.92982 0.29885 0.27098 0.13300
C 	C 	0.92982 0.23132 0.20646 0.14800
C 	C 	0.07018 0.23221 0.53054 -0.13900
C 	C 	0.07018 0.02787 0.72902 -0.15400
C 	C 	0.07018 0.02486 0.79354 -0.14500
C 	C 	0.57018 0.76779 0.46946 0.00900
C 	C 	0.57018 0.97213 0.27098 0.03100
C 	C 	0.57018 0.97514 0.20646 0.01700
C 	C 	0.75000 0.59778 0.46946 0.52600
C 	C 	0.75000 0.66862 0.46946 -0.15600
C 	C 	0.75000 0.40498 0.37238 0.51500
C 	C 	0.75000 0.33261 0.30324 -0.15800
C 	C 	0.75000 0.19755 0.17420 -0.19400
C 	C 	0.75000 0.12519 0.10506 0.52700
C 	C 	0.25000 0.40222 0.53054 0.48800
C 	C 	0.25000 0.33138 0.53054 -0.08400
C 	C 	0.25000 0.59502 0.62762 0.49500
C 	C 	0.25000 0.66739 0.69676 -0.08600
C 	C 	0.25000 0.80245 0.82580 -0.03800
C 	C 	0.25000 0.87481 0.89494 0.49000
C 	C 	0.75000 0.87168 0.46946 0.51300
C 	C 	0.75000 0.80084 0.46946 -0.11900
C 	C 	0.75000 0.96740 0.37238 0.52000
C 	C 	0.75000 0.97063 0.30324 -0.12400
C 	C 	0.75000 0.97665 0.17420 -0.10800
C 	C 	0.75000 0.97987 0.10506 0.51600
C 	C 	0.25000 0.12832 0.53054 0.48700
C 	C 	0.25000 0.19916 0.53054 -0.11300
C 	C 	0.25000 0.03260 0.62762 0.47800
C 	C 	0.25000 0.02937 0.69676 -0.11300
C 	C 	0.25000 0.02335 0.82580 -0.11600
C 	C 	0.25000 0.02013 0.89494 0.49900
O 	O 	0.58944 0.56827 0.46946 -0.60000
O 	O 	0.58944 0.43512 0.40118 -0.60800
O 	O 	0.58944 0.09504 0.07626 -0.72000
O 	O 	0.08944 0.43173 0.53054 -0.64300
O 	O 	0.08944 0.56488 0.59882 -0.64200
O 	O 	0.08944 0.90496 0.92374 -0.50800
O 	O 	0.91056 0.90119 0.46946 -0.46000
O 	O 	0.91056 0.96606 0.40118 -0.46400
O 	O 	0.91056 0.98122 0.07626 -0.46200
O 	O 	0.41056 0.09881 0.53054 -0.64700
O 	O 	0.41056 0.03394 0.59882 -0.65000
O 	O 	0.41056 0.01878 0.92374 -0.63800
O 	O 	0.41056 0.43173 0.53054 -0.58900
O 	O 	0.41056 0.56488 0.59882 -0.58900
O 	O 	0.41056 0.90496 0.92374 -0.45500
O 	O 	0.91056 0.56827 0.46946 -0.53800
O 	O 	0.91056 0.43512 0.40118 -0.54500
O 	O 	0.91056 0.09504 0.07626 -0.65700
O 	O 	0.08944 0.09881 0.53054 -0.70100
O 	O 	0.08944 0.03394 0.59882 -0.70200
O 	O 	0.08944 0.01878 0.92374 -0.69000
O 	O 	0.58944 0.90119 0.46946 -0.51900
O 	O 	0.58944 0.96606 0.40118 -0.52300
O 	O 	0.58944 0.98122 0.07626 -0.52200
O 	O 	0.75000 0.50000 0.54600 -0.64400
O 	O 	0.25000 0.50000 0.45400 -0.72900
O 	O 	0.75000 0.04600 0.54600 -0.73700
O 	O 	0.25000 0.95400 0.45400 -0.60000
O 	O 	0.75000 0.97437 0.94874 -0.41200
O 	O 	0.25000 0.02563 0.05126 -0.94100
