data_crystal

_cell_length_a 8.02750
_cell_length_b 9.38200
_cell_length_c 9.38200
_cell_angle_alpha 106.67200
_cell_angle_beta  102.75800
_cell_angle_gamma 102.75800

_symmetry_space_group_name_	'P 1'
_symmetry_space_group_name_H-M	'P 1'

loop_
_symmetry_equiv_pos_as_xyz
  x,y,z

loop_
_atom_site_label
_atom_site_type_symbol
_atom_site_fract_x
_atom_site_fract_y
_atom_site_fract_z
_atom_site_charge
Zn	Zn	0.04722 0.92268 0.92328 1.21700
Zn	Zn	0.93874 0.08614 0.08564 1.19900
H 	H 	0.55524 0.96424 0.24426 0.06200
H 	H 	0.82178 0.34838 0.87714 0.10100
H 	H 	0.94282 0.54182 0.01598 0.07300
H 	H 	0.43704 0.75024 0.03366 0.04700
H 	H 	0.94240 0.00244 0.54722 0.08900
H 	H 	0.82518 0.88814 0.34600 0.09800
H 	H 	0.43672 0.03438 0.75050 0.04400
H 	H 	0.55502 0.24378 0.96346 0.06500
H 	H 	0.21796 0.05110 0.53398 0.05100
H 	H 	0.21754 0.53330 0.04886 0.04700
C 	C 	0.22258 0.99956 0.23062 0.34700
C 	C 	0.36414 0.00182 0.36862 -0.05400
C 	C 	0.52682 0.97604 0.35362 -0.06600
C 	C 	0.33898 0.02854 0.51624 -0.02500
C 	C 	0.77126 0.76808 0.00004 0.33400
C 	C 	0.63236 0.62800 0.99880 -0.08400
C 	C 	0.46826 0.64192 0.02264 -0.01600
C 	C 	0.65818 0.47936 0.97276 0.11000
C 	C 	0.77040 0.00178 0.76986 0.38300
C 	C 	0.63248 0.00034 0.62898 -0.13400
C 	C 	0.46830 0.02400 0.64246 0.01800
C 	C 	0.65914 0.97454 0.48044 0.12100
C 	C 	0.22260 0.22932 0.99758 0.37100
C 	C 	0.36352 0.36762 0.99970 -0.05200
C 	C 	0.52606 0.35270 0.97428 -0.05500
C 	C 	0.33850 0.51546 0.02660 -0.03000
N 	N 	0.82136 0.45554 0.95032 -0.17700
N 	N 	0.82228 0.95114 0.45642 -0.19100
O 	O 	0.21310 0.92194 0.09158 -0.49300
O 	O 	0.88064 0.92344 0.75420 -0.48800
O 	O 	0.77820 0.90680 0.07696 -0.49900
O 	O 	0.11160 0.24826 0.07506 -0.49800
O 	O 	0.77880 0.08126 0.90818 -0.49400
O 	O 	0.10972 0.07528 0.24942 -0.47900
O 	O 	0.21192 0.09006 0.91886 -0.48300
O 	O 	0.88418 0.75152 0.92448 -0.45900
