data_crystal

_cell_length_a 11.98380
_cell_length_b 13.50900
_cell_length_c 27.03900
_cell_angle_alpha 93.45900
_cell_angle_beta  90.00000
_cell_angle_gamma 90.00000

_symmetry_space_group_name_	'P 1'
_symmetry_space_group_name_H-M	'P 1'

loop_
_symmetry_equiv_pos_as_xyz
  x,y,z

loop_
_atom_site_label
_atom_site_type_symbol
_atom_site_fract_x
_atom_site_fract_y
_atom_site_fract_z
_atom_site_charge
Zn	Zn	0.17349 0.82305 0.54204 1.17400
Zn	Zn	0.82683 0.80152 0.44362 1.17700
Zn	Zn	0.92406 0.98844 0.38895 1.22200
Zn	Zn	0.17349 0.17695 0.95796 1.17300
Zn	Zn	0.82683 0.19848 0.05638 1.17200
Zn	Zn	0.92406 0.01156 0.11105 1.20400
Zn	Zn	0.82651 0.17695 0.45796 1.18200
Zn	Zn	0.17317 0.19848 0.55638 1.16300
Zn	Zn	0.07594 0.01156 0.61105 1.19200
Zn	Zn	0.82651 0.82305 0.04204 1.18200
Zn	Zn	0.17317 0.80152 0.94362 1.16900
Zn	Zn	0.07594 0.98844 0.88895 1.21400
Zn	Zn	0.00000 0.00000 0.50000 1.16900
Zn	Zn	-0.00000 0.00000 -0.00000 1.16100
H 	H 	0.12460 0.86120 0.74610 0.01400
H 	H 	0.28240 0.63890 0.80740 -0.00800
H 	H 	0.34930 0.58830 0.73190 0.07400
H 	H 	0.30510 0.66650 0.66040 -0.01300
H 	H 	0.47700 0.89120 0.46450 0.05100
H 	H 	0.27760 0.10950 0.41850 0.00400
H 	H 	0.42510 0.18350 0.38190 0.00800
H 	H 	0.60300 0.09940 0.37780 0.05800
H 	H 	0.12460 0.13880 0.75390 -0.00300
H 	H 	0.28240 0.36110 0.69260 -0.01300
H 	H 	0.34930 0.41170 0.76810 0.07700
H 	H 	0.30510 0.33350 0.83960 -0.01400
H 	H 	0.47700 0.10880 0.03550 -0.01400
H 	H 	0.27760 0.89050 0.08150 -0.07100
H 	H 	0.42510 0.81650 0.11810 0.08600
H 	H 	0.60300 0.90060 0.12220 -0.01100
H 	H 	0.87540 0.13880 0.25390 0.01500
H 	H 	0.71760 0.36110 0.19260 -0.00700
H 	H 	0.65070 0.41170 0.26810 0.06600
H 	H 	0.69490 0.33350 0.33960 -0.01000
H 	H 	0.52300 0.10880 0.53550 -0.00100
H 	H 	0.72240 0.89050 0.58150 -0.03600
H 	H 	0.57490 0.81650 0.61810 0.09700
H 	H 	0.39700 0.90060 0.62220 -0.00500
H 	H 	0.87540 0.86120 0.24610 0.03000
H 	H 	0.71760 0.63890 0.30740 -0.00300
H 	H 	0.65070 0.58830 0.23190 0.06400
H 	H 	0.69490 0.66650 0.16040 -0.00900
H 	H 	0.52300 0.89120 0.96450 0.06000
H 	H 	0.72240 0.10950 0.91850 0.03600
H 	H 	0.57490 0.18350 0.88190 0.02500
H 	H 	0.39700 0.09940 0.87780 0.06100
C 	C 	0.20660 0.77650 0.69460 -0.20500
C 	C 	0.17120 0.80430 0.74260 0.12400
C 	C 	0.19530 0.76020 0.78450 -0.19100
C 	C 	0.26400 0.67460 0.77930 0.09500
C 	C 	0.30200 0.64470 0.73450 -0.17100
C 	C 	0.27600 0.69130 0.69140 0.09300
C 	C 	0.17320 0.82760 0.65170 0.43800
C 	C 	0.15770 0.79810 0.83570 0.43500
C 	C 	0.55680 0.98880 0.42040 -0.02100
C 	C 	0.46680 0.94850 0.44640 -0.00800
C 	C 	0.36150 0.99490 0.44480 -0.04900
C 	C 	0.34930 0.07980 0.41970 -0.07600
C 	C 	0.43490 0.12230 0.39690 -0.02800
C 	C 	0.54270 0.07320 0.39570 -0.09000
C 	C 	0.67030 0.94310 0.42420 0.34300
C 	C 	0.26910 0.95260 0.47390 0.35000
C 	C 	0.20660 0.22350 0.80540 -0.22100
C 	C 	0.17120 0.19570 0.75740 0.13300
C 	C 	0.19530 0.23980 0.71550 -0.20600
C 	C 	0.26400 0.32540 0.72070 0.10300
C 	C 	0.30200 0.35530 0.76550 -0.18100
C 	C 	0.27600 0.30870 0.80860 0.10000
C 	C 	0.17320 0.17240 0.84830 0.44200
C 	C 	0.15770 0.20190 0.66430 0.44000
C 	C 	0.55680 0.01120 0.07960 -0.24700
C 	C 	0.46680 0.05150 0.05360 0.14300
C 	C 	0.36150 0.00510 0.05520 -0.28000
C 	C 	0.34930 0.92020 0.08030 0.21000
C 	C 	0.43490 0.87770 0.10310 -0.24800
C 	C 	0.54270 0.92680 0.10430 0.17400
C 	C 	0.67030 0.05690 0.07580 0.40100
C 	C 	0.26910 0.04740 0.02610 0.38000
C 	C 	0.79340 0.22350 0.30540 -0.20200
C 	C 	0.82880 0.19570 0.25740 0.12300
C 	C 	0.80470 0.23980 0.21550 -0.18500
C 	C 	0.73600 0.32540 0.22070 0.09200
C 	C 	0.69800 0.35530 0.26550 -0.16800
C 	C 	0.72400 0.30870 0.30860 0.09100
C 	C 	0.82680 0.17240 0.34830 0.43800
C 	C 	0.84230 0.20190 0.16430 0.43500
C 	C 	0.44320 0.01120 0.57960 -0.23500
C 	C 	0.53320 0.05150 0.55360 0.14200
C 	C 	0.63850 0.00510 0.55520 -0.25500
C 	C 	0.65070 0.92020 0.58030 0.19900
C 	C 	0.56510 0.87770 0.60310 -0.22600
C 	C 	0.45730 0.92680 0.60430 0.17000
C 	C 	0.32970 0.05690 0.57580 0.40200
C 	C 	0.73090 0.04740 0.52610 0.40600
C 	C 	0.79340 0.77650 0.19460 -0.18800
C 	C 	0.82880 0.80430 0.24260 0.11600
C 	C 	0.80470 0.76020 0.28450 -0.17300
C 	C 	0.73600 0.67460 0.27930 0.08600
C 	C 	0.69800 0.64470 0.23450 -0.15900
C 	C 	0.72400 0.69130 0.19140 0.08600
C 	C 	0.82680 0.82760 0.15170 0.43500
C 	C 	0.84230 0.79810 0.33570 0.43100
C 	C 	0.44320 0.98880 0.92040 -0.01700
C 	C 	0.53320 0.94850 0.94640 -0.00100
C 	C 	0.63850 0.99490 0.94480 -0.04000
C 	C 	0.65070 0.07980 0.91970 -0.06600
C 	C 	0.56510 0.12230 0.89690 -0.01900
C 	C 	0.45730 0.07320 0.89570 -0.08300
C 	C 	0.32970 0.94310 0.92420 0.34700
C 	C 	0.73090 0.95260 0.97390 0.37600
O 	O 	0.11050 0.90190 0.65660 -0.47500
O 	O 	0.20870 0.79180 0.60960 -0.53300
O 	O 	0.09610 0.87390 0.83500 -0.48300
O 	O 	0.18370 0.75390 0.87260 -0.54200
O 	O 	0.68000 0.86440 0.44780 -0.48700
O 	O 	0.75070 0.98600 0.40230 -0.46000
O 	O 	0.29080 0.88670 0.50340 -0.50200
O 	O 	0.17140 0.98860 0.46770 -0.48600
O 	O 	0.95430 0.89300 0.44620 -0.66700
O 	O 	0.04240 0.90430 0.55260 -0.72300
O 	O 	0.11050 0.09810 0.84340 -0.51400
O 	O 	0.20870 0.20820 0.89040 -0.54200
O 	O 	0.09610 0.12610 0.66500 -0.50300
O 	O 	0.18370 0.24610 0.62740 -0.54800
O 	O 	0.68000 0.13560 0.05220 -0.52000
O 	O 	0.75070 0.01400 0.09770 -0.51500
O 	O 	0.29080 0.11330 0.99660 -0.50300
O 	O 	0.17140 0.01140 0.03230 -0.54600
O 	O 	0.95430 0.10700 0.05380 -0.69100
O 	O 	0.04240 0.09570 0.94740 -0.75200
O 	O 	0.88950 0.09810 0.34340 -0.48800
O 	O 	0.79130 0.20820 0.39040 -0.52900
O 	O 	0.90390 0.12610 0.16500 -0.47400
O 	O 	0.81630 0.24610 0.12740 -0.53100
O 	O 	0.32000 0.13560 0.55220 -0.51700
O 	O 	0.24930 0.01400 0.59770 -0.51300
O 	O 	0.70920 0.11330 0.49660 -0.51700
O 	O 	0.82860 0.01140 0.53230 -0.47800
O 	O 	0.04570 0.10700 0.55380 -0.75800
O 	O 	0.95760 0.09570 0.44740 -0.68600
O 	O 	0.88950 0.90190 0.15660 -0.45400
O 	O 	0.79130 0.79180 0.10960 -0.52100
O 	O 	0.90390 0.87390 0.33500 -0.45700
O 	O 	0.81630 0.75390 0.37260 -0.52600
O 	O 	0.32000 0.86440 0.94780 -0.48300
O 	O 	0.24930 0.98600 0.90230 -0.45700
O 	O 	0.70920 0.88670 0.00340 -0.51300
O 	O 	0.82860 0.98860 0.96770 -0.42400
O 	O 	0.04570 0.89300 0.94620 -0.72500
O 	O 	0.95760 0.90430 0.05260 -0.65900
