data_crystal

_cell_length_a 11.81370
_cell_length_b 15.53030
_cell_length_c 16.39120
_cell_angle_alpha 90.00000
_cell_angle_beta  90.00000
_cell_angle_gamma 90.00000

_symmetry_space_group_name_	'P 1'
_symmetry_space_group_name_H-M	'P 1'

loop_
_symmetry_equiv_pos_as_xyz
  x,y,z

loop_
_atom_site_label
_atom_site_type_symbol
_atom_site_fract_x
_atom_site_fract_y
_atom_site_fract_z
_atom_site_charge
Zn	Zn	0.69380 0.67800 0.82370 1.21200
Zn	Zn	0.69210 0.67760 0.00180 1.16600
Si	Si	0.93470 0.42790 0.43720 2.82700
H 	H 	0.01620 0.02370 0.03090 -0.09300
H 	H 	0.02060 0.34000 0.79290 -0.01400
H 	H 	0.96700 0.86940 0.79240 0.07200
H 	H 	0.90140 0.45560 0.79030 0.07100
H 	H 	0.95710 0.48040 0.03030 -0.05100
H 	H 	0.90180 0.90530 0.02880 -0.03400
H 	H 	0.52200 0.92220 0.02280 -0.10600
H 	H 	0.52380 0.43620 0.80370 0.00700
H 	H 	0.40540 0.04370 0.02620 -0.03400
H 	H 	0.40720 0.31470 0.79770 0.05900
H 	H 	0.37920 0.84610 0.81150 0.01500
H 	H 	0.37630 0.50740 0.01450 -0.09100
H 	H 	0.38570 0.17840 0.91330 0.04500
H 	H 	0.26040 0.38670 0.01060 -0.03400
H 	H 	0.26350 0.96810 0.81590 0.07600
H 	H 	0.00150 0.17740 0.89770 0.09900
H 	H 	0.07890 0.98860 0.79850 -0.00400
H 	H 	0.07500 0.36320 0.02830 -0.10500
H 	H 	0.78520 0.58270 0.68650 -0.08200
H 	H 	0.80610 0.79120 0.27080 0.05200
H 	H 	0.79700 0.77400 0.13240 -0.03800
H 	H 	0.59680 0.62600 0.43110 0.06600
H 	H 	0.74020 0.75760 0.40680 0.01800
H 	H 	0.57250 0.59370 0.15600 -0.03400
H 	H 	0.58540 0.78560 0.54870 0.10900
H 	H 	0.57810 0.60810 0.29490 0.05700
H 	H 	0.58860 0.78400 0.68620 -0.02800
H 	H 	0.96200 0.39460 0.29890 0.74800
H 	H 	0.84010 0.43220 0.31140 0.77300
H 	H 	0.94480 0.49410 0.30870 0.77000
H 	H 	0.92340 0.27540 0.44090 0.71800
H 	H 	0.89490 0.31250 0.52750 0.74000
H 	H 	0.80340 0.31450 0.45830 0.74000
H 	H 	0.13030 0.39550 0.43540 0.74900
H 	H 	0.11380 0.49420 0.45120 0.76400
H 	H 	0.09610 0.42820 0.52250 0.76700
C 	C 	0.00760 0.99380 0.98210 0.19300
C 	C 	0.00810 0.36820 0.84210 0.10600
C 	C 	0.97560 0.89940 0.84110 -0.16000
C 	C 	0.93560 0.43830 0.83860 -0.16900
C 	C 	0.96960 0.45190 0.98130 -0.04000
C 	C 	0.92170 0.87370 0.91170 -0.02700
C 	C 	0.91720 0.48090 0.91180 -0.03600
C 	C 	0.93830 0.92170 0.98100 -0.03900
C 	C 	0.84150 0.55790 0.91320 0.34600
C 	C 	0.84220 0.79850 0.91260 0.33200
C 	C 	0.53880 0.79690 0.91360 0.41000
C 	C 	0.54080 0.55990 0.91900 0.38400
C 	C 	0.46950 0.93150 0.98150 0.19100
C 	C 	0.47110 0.42630 0.84470 0.05700
C 	C 	0.46200 0.48490 0.91010 -0.15600
C 	C 	0.45990 0.87250 0.91700 -0.17300
C 	C 	0.39990 0.00460 0.98340 -0.04000
C 	C 	0.40150 0.35320 0.84090 -0.13000
C 	C 	0.38460 0.88500 0.85440 0.08200
C 	C 	0.38270 0.46890 0.97130 0.16900
C 	C 	0.32260 0.33930 0.90440 0.04800
C 	C 	0.32230 0.01820 0.92060 0.06400
C 	C 	0.30710 0.17830 0.91010 -0.03000
C 	C 	0.31280 0.39650 0.96930 -0.02200
C 	C 	0.31550 0.95880 0.85750 -0.13500
C 	C 	0.25620 0.25770 0.91270 -0.04200
C 	C 	0.25770 0.09940 0.90350 -0.04900
C 	C 	0.13970 0.10030 0.89870 0.08700
C 	C 	0.13860 0.25500 0.90780 0.09100
C 	C 	0.08010 0.17760 0.90090 -0.15400
C 	C 	0.06470 0.02350 0.91330 -0.11300
C 	C 	0.06470 0.33430 0.90920 -0.11700
C 	C 	0.04320 0.97220 0.84660 0.10100
C 	C 	0.04130 0.38060 0.97980 0.19700
C 	C 	0.74260 0.62394 0.57499 -0.42400
C 	C 	0.74380 0.62470 0.65920 0.21700
C 	C 	0.75750 0.75020 0.24870 -0.17500
C 	C 	0.75140 0.73930 0.16490 0.05900
C 	C 	0.68290 0.68310 0.53090 0.23600
C 	C 	0.69310 0.70130 0.29820 0.07500
C 	C 	0.65050 0.66760 0.44410 -0.18800
C 	C 	0.69700 0.71160 0.38850 -0.04800
C 	C 	0.62090 0.63450 0.17840 0.07500
C 	C 	0.62660 0.74300 0.57550 -0.27600
C 	C 	0.62400 0.64290 0.26260 -0.18000
C 	C 	0.62910 0.74210 0.65810 0.14700
C 	C 	0.85510 0.50870 0.49398 -1.12100
C 	C 	0.80410 0.56095 0.53071 0.59600
C 	C 	0.91850 0.43850 0.32570 -2.78400
C 	C 	0.88280 0.31930 0.47000 -2.67300
C 	C 	0.08720 0.43760 0.46490 -2.67000
N 	N 	0.68390 0.68210 0.12750 -0.27500
N 	N 	0.68850 0.68230 0.70190 -0.30300
O 	O 	0.80380 0.58060 0.98090 -0.44200
O 	O 	0.79880 0.77630 0.97990 -0.42800
O 	O 	0.79980 0.78110 0.84360 -0.45200
O 	O 	0.79400 0.57670 0.84560 -0.47600
O 	O 	0.56740 0.76440 0.84640 -0.44700
O 	O 	0.56150 0.59660 0.85120 -0.43400
O 	O 	0.55810 0.59970 0.98480 -0.40500
O 	O 	0.55680 0.75630 0.97870 -0.40200
