data_crystal

_cell_length_a 15.13300
_cell_length_b 17.67760
_cell_length_c 17.67760
_cell_angle_alpha 90.00000
_cell_angle_beta  90.00000
_cell_angle_gamma 90.00000

_symmetry_space_group_name_	'P 1'
_symmetry_space_group_name_H-M	'P 1'

loop_
_symmetry_equiv_pos_as_xyz
  x,y,z

loop_
_atom_site_label
_atom_site_type_symbol
_atom_site_fract_x
_atom_site_fract_y
_atom_site_fract_z
_atom_site_charge
Zn	Zn	0.96908 0.85438 0.89641 1.23100
Zn	Zn	0.96908 0.14562 0.10359 1.23100
Zn	Zn	0.03092 0.89641 0.14562 1.23100
Zn	Zn	0.03092 0.10359 0.85438 1.23100
Zn	Zn	0.46908 0.85438 0.10359 1.23100
Zn	Zn	0.46908 0.14562 0.89641 1.23100
Zn	Zn	0.53092 0.89641 0.85438 1.23100
Zn	Zn	0.53092 0.10359 0.14562 1.23100
Zn	Zn	0.75000 0.85100 0.85100 1.23200
Zn	Zn	0.75000 0.14900 0.14900 1.23200
Zn	Zn	0.25000 0.85100 0.14900 1.23200
Zn	Zn	0.25000 0.14900 0.85100 1.23200
H 	H 	0.78040 0.86350 0.61320 0.02600
H 	H 	0.81590 0.87940 0.48510 0.05900
H 	H 	0.07460 0.89490 0.53960 0.05800
H 	H 	0.03920 0.88010 0.66770 0.02600
H 	H 	0.09020 0.84160 0.42190 0.07700
H 	H 	0.11820 0.84620 0.29340 -0.02000
H 	H 	0.89680 0.95260 0.25700 -0.01700
H 	H 	0.86040 0.95020 0.38380 0.07500
H 	H 	0.78010 0.89960 0.01380 -0.03000
H 	H 	0.73680 0.77010 0.99330 0.17800
H 	H 	0.83370 0.74390 0.01820 0.19000
H 	H 	0.76990 0.78410 0.07810 0.20400
H 	H 	0.78040 0.13650 0.38680 0.02500
H 	H 	0.81590 0.12060 0.51490 0.05800
H 	H 	0.07460 0.10510 0.46040 0.05700
H 	H 	0.03920 0.11990 0.33230 0.02500
H 	H 	0.09020 0.15840 0.57810 0.07600
H 	H 	0.11820 0.15380 0.70660 -0.02100
H 	H 	0.89680 0.04740 0.74300 -0.01800
H 	H 	0.86040 0.04980 0.61620 0.07400
H 	H 	0.78010 0.10040 0.98620 -0.03000
H 	H 	0.73680 0.22990 0.00670 0.17800
H 	H 	0.83370 0.25610 0.98180 0.19000
H 	H 	0.76990 0.21590 0.92190 0.20400
H 	H 	0.21960 0.61320 0.13650 0.02500
H 	H 	0.18410 0.48510 0.12060 0.05800
H 	H 	0.92540 0.53960 0.10510 0.05700
H 	H 	0.96080 0.66770 0.11990 0.02500
H 	H 	0.90980 0.42190 0.15840 0.07600
H 	H 	0.88180 0.29340 0.15380 -0.02100
H 	H 	0.10320 0.25700 0.04740 -0.01800
H 	H 	0.13960 0.38380 0.04980 0.07400
H 	H 	0.21990 0.01380 0.10040 -0.03000
H 	H 	0.26320 0.99330 0.22990 0.17800
H 	H 	0.16630 0.01820 0.25610 0.19000
H 	H 	0.23010 0.07810 0.21590 0.20400
H 	H 	0.21960 0.38680 0.86350 0.02500
H 	H 	0.18410 0.51490 0.87940 0.05800
H 	H 	0.92540 0.46040 0.89490 0.05700
H 	H 	0.96080 0.33230 0.88010 0.02500
H 	H 	0.90980 0.57810 0.84160 0.07600
H 	H 	0.88180 0.70660 0.84620 -0.02100
H 	H 	0.10320 0.74300 0.95260 -0.01800
H 	H 	0.13960 0.61620 0.95020 0.07400
H 	H 	0.21990 0.98620 0.89960 -0.03000
H 	H 	0.26320 0.00670 0.77010 0.17800
H 	H 	0.16630 0.98180 0.74390 0.19000
H 	H 	0.23010 0.92190 0.78410 0.20400
H 	H 	0.28040 0.86350 0.38680 0.02500
H 	H 	0.31590 0.87940 0.51490 0.05800
H 	H 	0.57460 0.89490 0.46040 0.05700
H 	H 	0.53920 0.88010 0.33230 0.02500
H 	H 	0.59020 0.84160 0.57810 0.07600
H 	H 	0.61820 0.84620 0.70660 -0.02100
H 	H 	0.39680 0.95260 0.74300 -0.01800
H 	H 	0.36040 0.95020 0.61620 0.07400
H 	H 	0.28010 0.89960 0.98620 -0.03000
H 	H 	0.23680 0.77010 0.00670 0.17800
H 	H 	0.33370 0.74390 0.98180 0.19000
H 	H 	0.26990 0.78410 0.92190 0.20400
H 	H 	0.28040 0.13650 0.61320 0.02500
H 	H 	0.31590 0.12060 0.48510 0.05800
H 	H 	0.57460 0.10510 0.53960 0.05700
H 	H 	0.53920 0.11990 0.66770 0.02500
H 	H 	0.59020 0.15840 0.42190 0.07600
H 	H 	0.61820 0.15380 0.29340 -0.02100
H 	H 	0.39680 0.04740 0.25700 -0.01800
H 	H 	0.36040 0.04980 0.38380 0.07400
H 	H 	0.28010 0.10040 0.01380 -0.03000
H 	H 	0.23680 0.22990 0.99330 0.17800
H 	H 	0.33370 0.25610 0.01820 0.19000
H 	H 	0.26990 0.21590 0.07810 0.20400
H 	H 	0.71960 0.61320 0.86350 0.02500
H 	H 	0.68410 0.48510 0.87940 0.05800
H 	H 	0.42540 0.53960 0.89490 0.05700
H 	H 	0.46080 0.66770 0.88010 0.02500
H 	H 	0.40980 0.42190 0.84160 0.07600
H 	H 	0.38180 0.29340 0.84620 -0.02100
H 	H 	0.60320 0.25700 0.95260 -0.01800
H 	H 	0.63960 0.38380 0.95020 0.07400
H 	H 	0.71990 0.01380 0.89960 -0.03000
H 	H 	0.76320 0.99330 0.77010 0.17800
H 	H 	0.66630 0.01820 0.74390 0.19000
H 	H 	0.73010 0.07810 0.78410 0.20400
H 	H 	0.71960 0.38680 0.13650 0.02500
H 	H 	0.68410 0.51490 0.12060 0.05800
H 	H 	0.42540 0.46040 0.10510 0.05700
H 	H 	0.46080 0.33230 0.11990 0.02500
H 	H 	0.40980 0.57810 0.15840 0.07600
H 	H 	0.38180 0.70660 0.15380 -0.02100
H 	H 	0.60320 0.74300 0.04740 -0.01800
H 	H 	0.63960 0.61620 0.04980 0.07400
H 	H 	0.71990 0.98620 0.10040 -0.03000
H 	H 	0.76320 0.00670 0.22990 0.17800
H 	H 	0.66630 0.98180 0.25610 0.19000
H 	H 	0.73010 0.92190 0.21590 0.20400
C 	C 	0.90570 0.86960 0.65270 -0.13100
C 	C 	0.84040 0.86970 0.59860 0.03800
C 	C 	0.86180 0.87880 0.52180 -0.09700
C 	C 	0.94890 0.88710 0.49870 0.02600
C 	C 	0.01470 0.88820 0.55410 -0.09600
C 	C 	0.99370 0.87940 0.63070 0.03900
C 	C 	0.97110 0.89340 0.41820 0.06900
C 	C 	0.04810 0.86420 0.38900 -0.14100
C 	C 	0.06470 0.86740 0.31190 0.08600
C 	C 	0.93630 0.92870 0.29130 0.08500
C 	C 	0.91400 0.92780 0.36690 -0.13900
C 	C 	0.88240 0.85860 0.73390 0.40400
C 	C 	0.82440 0.85930 0.00180 0.18900
C 	C 	0.90820 0.87310 0.04620 0.22400
C 	C 	0.78800 0.78250 0.02490 -0.57100
C 	C 	0.90570 0.13040 0.34730 -0.13100
C 	C 	0.84040 0.13030 0.40140 0.03800
C 	C 	0.86180 0.12120 0.47820 -0.09700
C 	C 	0.94890 0.11290 0.50130 0.02600
C 	C 	0.01470 0.11180 0.44590 -0.09600
C 	C 	0.99370 0.12060 0.36930 0.03900
C 	C 	0.97110 0.10660 0.58180 0.06900
C 	C 	0.04810 0.13580 0.61100 -0.14100
C 	C 	0.06470 0.13260 0.68810 0.08600
C 	C 	0.93630 0.07130 0.70870 0.08500
C 	C 	0.91400 0.07220 0.63310 -0.13900
C 	C 	0.88240 0.14140 0.26610 0.40400
C 	C 	0.82440 0.14070 0.99820 0.18900
C 	C 	0.90820 0.12690 0.95380 0.22400
C 	C 	0.78800 0.21750 0.97510 -0.57100
C 	C 	0.09430 0.65270 0.13040 -0.13100
C 	C 	0.15960 0.59860 0.13030 0.03800
C 	C 	0.13820 0.52180 0.12120 -0.09700
C 	C 	0.05110 0.49870 0.11290 0.02600
C 	C 	0.98530 0.55410 0.11180 -0.09600
C 	C 	0.00630 0.63070 0.12060 0.03900
C 	C 	0.02890 0.41820 0.10660 0.06900
C 	C 	0.95190 0.38900 0.13580 -0.14100
C 	C 	0.93530 0.31190 0.13260 0.08600
C 	C 	0.06370 0.29130 0.07130 0.08500
C 	C 	0.08600 0.36690 0.07220 -0.13900
C 	C 	0.11760 0.73390 0.14140 0.40400
C 	C 	0.17560 0.00180 0.14070 0.18900
C 	C 	0.09180 0.04620 0.12690 0.22400
C 	C 	0.21200 0.02490 0.21750 -0.57100
C 	C 	0.09430 0.34730 0.86960 -0.13100
C 	C 	0.15960 0.40140 0.86970 0.03800
C 	C 	0.13820 0.47820 0.87880 -0.09700
C 	C 	0.05110 0.50130 0.88710 0.02600
C 	C 	0.98530 0.44590 0.88820 -0.09600
C 	C 	0.00630 0.36930 0.87940 0.03900
C 	C 	0.02890 0.58180 0.89340 0.06900
C 	C 	0.95190 0.61100 0.86420 -0.14100
C 	C 	0.93530 0.68810 0.86740 0.08600
C 	C 	0.06370 0.70870 0.92870 0.08500
C 	C 	0.08600 0.63310 0.92780 -0.13900
C 	C 	0.11760 0.26610 0.85860 0.40400
C 	C 	0.17560 0.99820 0.85930 0.18900
C 	C 	0.09180 0.95380 0.87310 0.22400
C 	C 	0.21200 0.97510 0.78250 -0.57100
C 	C 	0.40570 0.86960 0.34730 -0.13100
C 	C 	0.34040 0.86970 0.40140 0.03800
C 	C 	0.36180 0.87880 0.47820 -0.09700
C 	C 	0.44890 0.88710 0.50130 0.02600
C 	C 	0.51470 0.88820 0.44590 -0.09600
C 	C 	0.49370 0.87940 0.36930 0.03900
C 	C 	0.47110 0.89340 0.58180 0.06900
C 	C 	0.54810 0.86420 0.61100 -0.14100
C 	C 	0.56470 0.86740 0.68810 0.08600
C 	C 	0.43630 0.92870 0.70870 0.08500
C 	C 	0.41400 0.92780 0.63310 -0.13900
C 	C 	0.38240 0.85860 0.26610 0.40400
C 	C 	0.32440 0.85930 0.99820 0.18900
C 	C 	0.40820 0.87310 0.95380 0.22400
C 	C 	0.28800 0.78250 0.97510 -0.57100
C 	C 	0.40570 0.13040 0.65270 -0.13100
C 	C 	0.34040 0.13030 0.59860 0.03800
C 	C 	0.36180 0.12120 0.52180 -0.09700
C 	C 	0.44890 0.11290 0.49870 0.02600
C 	C 	0.51470 0.11180 0.55410 -0.09600
C 	C 	0.49370 0.12060 0.63070 0.03900
C 	C 	0.47110 0.10660 0.41820 0.06900
C 	C 	0.54810 0.13580 0.38900 -0.14100
C 	C 	0.56470 0.13260 0.31190 0.08600
C 	C 	0.43630 0.07130 0.29130 0.08500
C 	C 	0.41400 0.07220 0.36690 -0.13900
C 	C 	0.38240 0.14140 0.73390 0.40400
C 	C 	0.32440 0.14070 0.00180 0.18900
C 	C 	0.40820 0.12690 0.04620 0.22400
C 	C 	0.28800 0.21750 0.02490 -0.57100
C 	C 	0.59430 0.65270 0.86960 -0.13100
C 	C 	0.65960 0.59860 0.86970 0.03800
C 	C 	0.63820 0.52180 0.87880 -0.09700
C 	C 	0.55110 0.49870 0.88710 0.02600
C 	C 	0.48530 0.55410 0.88820 -0.09600
C 	C 	0.50630 0.63070 0.87940 0.03900
C 	C 	0.52890 0.41820 0.89340 0.06900
C 	C 	0.45190 0.38900 0.86420 -0.14100
C 	C 	0.43530 0.31190 0.86740 0.08600
C 	C 	0.56370 0.29130 0.92870 0.08500
C 	C 	0.58600 0.36690 0.92780 -0.13900
C 	C 	0.61760 0.73390 0.85860 0.40400
C 	C 	0.67560 0.00180 0.85930 0.18900
C 	C 	0.59180 0.04620 0.87310 0.22400
C 	C 	0.71200 0.02490 0.78250 -0.57100
C 	C 	0.59430 0.34730 0.13040 -0.13100
C 	C 	0.65960 0.40140 0.13030 0.03800
C 	C 	0.63820 0.47820 0.12120 -0.09700
C 	C 	0.55110 0.50130 0.11290 0.02600
C 	C 	0.48530 0.44590 0.11180 -0.09600
C 	C 	0.50630 0.36930 0.12060 0.03900
C 	C 	0.52890 0.58180 0.10660 0.06900
C 	C 	0.45190 0.61100 0.13580 -0.14100
C 	C 	0.43530 0.68810 0.13260 0.08600
C 	C 	0.56370 0.70870 0.07130 0.08500
C 	C 	0.58600 0.63310 0.07220 -0.13900
C 	C 	0.61760 0.26610 0.14140 0.40400
C 	C 	0.67560 0.99820 0.14070 0.18900
C 	C 	0.59180 0.95380 0.12690 0.22400
C 	C 	0.71200 0.97510 0.21750 -0.57100
N 	N 	0.00980 0.89840 0.26340 -0.25200
N 	N 	0.00980 0.10160 0.73660 -0.25200
N 	N 	0.99020 0.26340 0.10160 -0.25200
N 	N 	0.99020 0.73660 0.89840 -0.25200
N 	N 	0.50980 0.89840 0.73660 -0.25200
N 	N 	0.50980 0.10160 0.26340 -0.25200
N 	N 	0.49020 0.26340 0.89840 -0.25200
N 	N 	0.49020 0.73660 0.10160 -0.25200
O 	O 	0.94590 0.85600 0.78050 -0.46300
O 	O 	0.80260 0.85350 0.74950 -0.49700
O 	O 	0.84250 0.85950 0.92390 -0.59200
O 	O 	0.98100 0.87360 0.01260 -0.45600
O 	O 	0.90150 0.88070 0.11730 -0.39100
O 	O 	0.94590 0.14400 0.21950 -0.46300
O 	O 	0.80260 0.14650 0.25050 -0.49700
O 	O 	0.84250 0.14050 0.07610 -0.59200
O 	O 	0.98100 0.12640 0.98740 -0.45600
O 	O 	0.90150 0.11930 0.88270 -0.39100
O 	O 	0.05410 0.78050 0.14400 -0.46300
O 	O 	0.19740 0.74950 0.14650 -0.49700
O 	O 	0.15750 0.92390 0.14050 -0.59200
O 	O 	0.01900 0.01260 0.12640 -0.45600
O 	O 	0.09850 0.11730 0.11930 -0.39100
O 	O 	0.05410 0.21950 0.85600 -0.46300
O 	O 	0.19740 0.25050 0.85350 -0.49700
O 	O 	0.15750 0.07610 0.85950 -0.59200
O 	O 	0.01900 0.98740 0.87360 -0.45600
O 	O 	0.09850 0.88270 0.88070 -0.39100
O 	O 	0.44590 0.85600 0.21950 -0.46300
O 	O 	0.30260 0.85350 0.25050 -0.49700
O 	O 	0.34250 0.85950 0.07610 -0.59200
O 	O 	0.48100 0.87360 0.98740 -0.45600
O 	O 	0.40150 0.88070 0.88270 -0.39100
O 	O 	0.44590 0.14400 0.78050 -0.46300
O 	O 	0.30260 0.14650 0.74950 -0.49700
O 	O 	0.34250 0.14050 0.92390 -0.59200
O 	O 	0.48100 0.12640 0.01260 -0.45600
O 	O 	0.40150 0.11930 0.11730 -0.39100
O 	O 	0.55410 0.78050 0.85600 -0.46300
O 	O 	0.69740 0.74950 0.85350 -0.49700
O 	O 	0.65750 0.92390 0.85950 -0.59200
O 	O 	0.51900 0.01260 0.87360 -0.45600
O 	O 	0.59850 0.11730 0.88070 -0.39100
O 	O 	0.55410 0.21950 0.14400 -0.46300
O 	O 	0.69740 0.25050 0.14650 -0.49700
O 	O 	0.65750 0.07610 0.14050 -0.59200
O 	O 	0.51900 0.98740 0.12640 -0.45600
O 	O 	0.59850 0.88270 0.11930 -0.39100
