data_crystal

_cell_length_a 10.76200
_cell_length_b 16.13700
_cell_length_c 20.36800
_cell_angle_alpha 111.65000
_cell_angle_beta  90.00000
_cell_angle_gamma 90.00000

_symmetry_space_group_name_	'P 1'
_symmetry_space_group_name_H-M	'P 1'

loop_
_symmetry_equiv_pos_as_xyz
  x,y,z

loop_
_atom_site_label
_atom_site_type_symbol
_atom_site_fract_x
_atom_site_fract_y
_atom_site_fract_z
_atom_site_charge
Ti	Ti	0.35980 0.46180 0.78830 3.10800
Ti	Ti	0.57850 0.54040 0.71380 3.10600
Ti	Ti	0.85980 0.03820 0.71170 3.10500
Ti	Ti	0.07850 0.95960 0.78620 3.10400
Ti	Ti	0.64020 0.53820 0.21170 3.10700
Ti	Ti	0.42150 0.45960 0.28620 3.10500
Ti	Ti	0.14020 0.96180 0.28830 3.10400
Ti	Ti	0.92150 0.04040 0.21380 3.10300
H 	H 	0.58730 0.30730 0.63150 0.08500
H 	H 	0.71390 0.18380 0.61690 0.08400
H 	H 	0.27720 0.22420 0.67550 0.07400
H 	H 	0.65250 0.39880 0.83850 0.07800
H 	H 	0.16200 0.72830 0.68240 0.06100
H 	H 	0.29250 0.60750 0.66740 0.07300
H 	H 	0.35840 0.70400 0.87540 0.08000
H 	H 	0.22140 0.81930 0.89020 0.08700
H 	H 	0.07340 0.63630 0.80770 0.09100
H 	H 	0.87960 0.63710 0.75640 0.08600
H 	H 	0.87190 0.36970 0.68970 0.11200
H 	H 	0.06590 0.36820 0.73770 0.05300
H 	H 	0.44550 0.37290 0.90400 0.08800
H 	H 	0.49000 0.63870 0.99070 0.08400
H 	H 	0.31640 0.48170 0.55210 0.07700
H 	H 	0.68850 0.51140 0.56010 0.07000
H 	H 	0.08730 0.19270 0.86850 0.08800
H 	H 	0.21390 0.31620 0.88310 0.08600
H 	H 	0.77720 0.27580 0.82450 0.07100
H 	H 	0.15250 0.10120 0.66150 0.08200
H 	H 	0.66200 0.77170 0.81760 0.06400
H 	H 	0.79250 0.89250 0.83260 0.07700
H 	H 	0.85840 0.79600 0.62460 0.08200
H 	H 	0.72140 0.68070 0.60980 0.08700
H 	H 	0.57340 0.86370 0.69230 0.09500
H 	H 	0.37960 0.86290 0.74360 0.08100
H 	H 	0.37190 0.13030 0.81030 0.10700
H 	H 	0.56590 0.13180 0.76230 0.05800
H 	H 	0.94550 0.12710 0.59600 0.10100
H 	H 	0.99000 0.86130 0.50930 0.07600
H 	H 	0.81640 0.01830 0.94790 0.08300
H 	H 	0.18850 0.98860 0.93990 0.07400
H 	H 	0.41270 0.69270 0.36850 0.08500
H 	H 	0.28610 0.81620 0.38310 0.08400
H 	H 	0.72280 0.77580 0.32450 0.07400
H 	H 	0.34750 0.60120 0.16150 0.07800
H 	H 	0.83800 0.27170 0.31760 0.06100
H 	H 	0.70750 0.39250 0.33260 0.07300
H 	H 	0.64160 0.29600 0.12460 0.08000
H 	H 	0.77860 0.18070 0.10980 0.08700
H 	H 	0.92660 0.36370 0.19230 0.09100
H 	H 	0.12040 0.36290 0.24360 0.08600
H 	H 	0.12810 0.63030 0.31030 0.11200
H 	H 	0.93410 0.63180 0.26230 0.05300
H 	H 	0.55450 0.62710 0.09600 0.08800
H 	H 	0.51000 0.36130 0.00930 0.08400
H 	H 	0.68360 0.51830 0.44790 0.07700
H 	H 	0.31150 0.48860 0.43990 0.07000
H 	H 	0.91270 0.80730 0.13150 0.08800
H 	H 	0.78610 0.68380 0.11690 0.08600
H 	H 	0.22280 0.72420 0.17550 0.07100
H 	H 	0.84750 0.89880 0.33850 0.08200
H 	H 	0.33800 0.22830 0.18240 0.06400
H 	H 	0.20750 0.10750 0.16740 0.07700
H 	H 	0.14160 0.20400 0.37540 0.08200
H 	H 	0.27860 0.31930 0.39020 0.08700
H 	H 	0.42660 0.13630 0.30770 0.09500
H 	H 	0.62040 0.13710 0.25640 0.08100
H 	H 	0.62810 0.86970 0.18970 0.10700
H 	H 	0.43410 0.86820 0.23770 0.05800
H 	H 	0.05450 0.87290 0.40400 0.10100
H 	H 	0.01000 0.13870 0.49070 0.07600
H 	H 	0.18360 0.98170 0.05210 0.08300
H 	H 	0.81150 0.01140 0.06010 0.07400
C 	C 	0.60220 0.36260 0.73650 0.31500
C 	C 	0.62410 0.30080 0.67060 -0.20100
C 	C 	0.70200 0.22720 0.66150 -0.16100
C 	C 	0.26080 0.27990 0.78040 0.33200
C 	C 	0.24010 0.21800 0.71460 -0.17400
C 	C 	0.66300 0.35500 0.79390 -0.18400
C 	C 	0.17750 0.78490 0.78730 0.30900
C 	C 	0.19980 0.72250 0.72150 -0.16700
C 	C 	0.27890 0.65010 0.71220 -0.18200
C 	C 	0.33620 0.64280 0.77030 0.29200
C 	C 	0.31680 0.70750 0.83650 -0.17300
C 	C 	0.23620 0.77730 0.84520 -0.15800
C 	C 	0.08860 0.50390 0.77870 0.26200
C 	C 	0.03270 0.58270 0.78400 -0.12900
C 	C 	0.91560 0.58380 0.75420 -0.20700
C 	C 	0.85360 0.50150 0.72090 0.34600
C 	C 	0.91190 0.42350 0.71410 -0.20700
C 	C 	0.02820 0.42200 0.74240 -0.13400
C 	C 	0.45600 0.50890 0.93880 0.31700
C 	C 	0.46610 0.42370 0.94270 -0.18700
C 	C 	0.49270 0.58320 0.99470 -0.15200
C 	C 	0.50050 0.48670 0.56550 0.31200
C 	C 	0.39080 0.48700 0.53070 -0.15500
C 	C 	0.61370 0.50500 0.53580 -0.17400
C 	C 	0.10220 0.13740 0.76350 0.31700
C 	C 	0.12410 0.19920 0.82940 -0.20000
C 	C 	0.20200 0.27280 0.83850 -0.15900
C 	C 	0.76080 0.22010 0.71960 0.33200
C 	C 	0.74010 0.28200 0.78540 -0.17600
C 	C 	0.16300 0.14500 0.70610 -0.18300
C 	C 	0.67750 0.71510 0.71270 0.30800
C 	C 	0.69980 0.77750 0.77850 -0.16500
C 	C 	0.77890 0.84990 0.78780 -0.18200
C 	C 	0.83620 0.85720 0.72970 0.29400
C 	C 	0.81680 0.79250 0.66350 -0.17300
C 	C 	0.73620 0.72270 0.65480 -0.15600
C 	C 	0.58860 0.99610 0.72130 0.27300
C 	C 	0.53270 0.91730 0.71600 -0.13500
C 	C 	0.41560 0.91620 0.74580 -0.20000
C 	C 	0.35360 0.99850 0.77910 0.33200
C 	C 	0.41190 0.07650 0.78590 -0.18200
C 	C 	0.52820 0.07800 0.75760 -0.15700
C 	C 	0.95600 0.99110 0.56120 0.34000
C 	C 	0.96610 0.07630 0.55730 -0.24500
C 	C 	0.99270 0.91680 0.50530 -0.11900
C 	C 	0.00050 0.01330 0.93450 0.35800
C 	C 	0.89080 0.01300 0.96930 -0.19000
C 	C 	0.11370 0.99500 0.96420 -0.19400
C 	C 	0.39780 0.63740 0.26350 0.31500
C 	C 	0.37590 0.69920 0.32940 -0.20100
C 	C 	0.29800 0.77280 0.33850 -0.16100
C 	C 	0.73920 0.72010 0.21960 0.33200
C 	C 	0.75990 0.78200 0.28540 -0.17400
C 	C 	0.33700 0.64500 0.20610 -0.18400
C 	C 	0.82250 0.21510 0.21270 0.30900
C 	C 	0.80020 0.27750 0.27850 -0.16700
C 	C 	0.72110 0.34990 0.28780 -0.18200
C 	C 	0.66380 0.35720 0.22970 0.29200
C 	C 	0.68320 0.29250 0.16350 -0.17300
C 	C 	0.76380 0.22270 0.15480 -0.15800
C 	C 	0.91140 0.49610 0.22130 0.26200
C 	C 	0.96730 0.41730 0.21600 -0.12900
C 	C 	0.08440 0.41620 0.24580 -0.20700
C 	C 	0.14640 0.49850 0.27910 0.34600
C 	C 	0.08810 0.57650 0.28590 -0.20700
C 	C 	0.97180 0.57800 0.25760 -0.13400
C 	C 	0.54400 0.49110 0.06120 0.31700
C 	C 	0.53390 0.57630 0.05730 -0.18700
C 	C 	0.50730 0.41680 0.00530 -0.15200
C 	C 	0.49950 0.51330 0.43450 0.31200
C 	C 	0.60920 0.51300 0.46930 -0.15500
C 	C 	0.38630 0.49500 0.46420 -0.17400
C 	C 	0.89780 0.86260 0.23650 0.31700
C 	C 	0.87590 0.80080 0.17060 -0.20000
C 	C 	0.79800 0.72720 0.16150 -0.15900
C 	C 	0.23920 0.77990 0.28040 0.33200
C 	C 	0.25990 0.71800 0.21460 -0.17600
C 	C 	0.83700 0.85500 0.29390 -0.18300
C 	C 	0.32250 0.28490 0.28730 0.30800
C 	C 	0.30020 0.22250 0.22150 -0.16500
C 	C 	0.22110 0.15010 0.21220 -0.18200
C 	C 	0.16380 0.14280 0.27030 0.29400
C 	C 	0.18320 0.20750 0.33650 -0.17300
C 	C 	0.26380 0.27730 0.34520 -0.15600
C 	C 	0.41140 0.00390 0.27870 0.27300
C 	C 	0.46730 0.08270 0.28400 -0.13500
C 	C 	0.58440 0.08380 0.25420 -0.20000
C 	C 	0.64640 0.00150 0.22090 0.33200
C 	C 	0.58810 0.92350 0.21410 -0.18200
C 	C 	0.47180 0.92200 0.24240 -0.15700
C 	C 	0.04400 0.00890 0.43880 0.34000
C 	C 	0.03390 0.92370 0.44270 -0.24500
C 	C 	0.00730 0.08320 0.49470 -0.11900
C 	C 	0.99950 0.98670 0.06550 0.35800
C 	C 	0.10920 0.98700 0.03070 -0.19000
C 	C 	0.88630 0.00500 0.03580 -0.19400
O 	O 	0.20170 0.50620 0.81000 -0.80800
O 	O 	0.53150 0.43690 0.74620 -1.08600
O 	O 	0.41900 0.51720 0.87680 -0.83800
O 	O 	0.41230 0.57020 0.76290 -1.06900
O 	O 	0.33500 0.35240 0.78810 -0.88500
O 	O 	0.09540 0.85330 0.79470 -0.87000
O 	O 	0.73810 0.50290 0.69500 -0.86700
O 	O 	0.50090 0.47900 0.62830 -0.83100
O 	O 	0.70170 0.99380 0.69000 -0.80600
O 	O 	0.03150 0.06310 0.75380 -1.07800
O 	O 	0.91900 0.98280 0.62320 -0.83600
O 	O 	0.91230 0.92980 0.73710 -1.06400
O 	O 	0.83500 0.14760 0.71190 -0.89300
O 	O 	0.59540 0.64670 0.70530 -0.86200
O 	O 	0.23810 0.99710 0.80500 -0.87100
O 	O 	0.00090 0.02100 0.87170 -0.83000
O 	O 	0.79830 0.49380 0.19000 -0.80800
O 	O 	0.46850 0.56310 0.25380 -1.08600
O 	O 	0.58100 0.48280 0.12320 -0.83800
O 	O 	0.58770 0.42980 0.23710 -1.06900
O 	O 	0.66500 0.64760 0.21190 -0.88500
O 	O 	0.90460 0.14670 0.20530 -0.87000
O 	O 	0.26190 0.49710 0.30500 -0.86700
O 	O 	0.49910 0.52100 0.37170 -0.83100
O 	O 	0.29830 0.00620 0.31000 -0.80600
O 	O 	0.96850 0.93690 0.24620 -1.07800
O 	O 	0.08100 0.01720 0.37680 -0.83600
O 	O 	0.08770 0.07020 0.26290 -1.06400
O 	O 	0.16500 0.85240 0.28810 -0.89300
O 	O 	0.40460 0.35330 0.29470 -0.86200
O 	O 	0.76190 0.00290 0.19500 -0.87100
O 	O 	0.99910 0.97900 0.12830 -0.83000
