data_crystal

_cell_length_a 15.16440
_cell_length_b 15.17290
_cell_length_c 22.27300
_cell_angle_alpha 82.98700
_cell_angle_beta  78.44600
_cell_angle_gamma 72.77100

_symmetry_space_group_name_	'P 1'
_symmetry_space_group_name_H-M	'P 1'

loop_
_symmetry_equiv_pos_as_xyz
  x,y,z

loop_
_atom_site_label
_atom_site_type_symbol
_atom_site_fract_x
_atom_site_fract_y
_atom_site_fract_z
_atom_site_charge
Zn	Zn	0.88242 0.71713 0.66726 1.21600
Zn	Zn	0.84643 0.70325 0.80171 1.21400
Zn	Zn	0.11758 0.28288 0.33274 1.21700
Zn	Zn	0.15357 0.29675 0.19829 1.21500
H 	H 	0.72560 0.78560 0.91830 -0.01800
H 	H 	0.73460 0.78180 0.02080 0.12500
H 	H 	0.98340 0.59220 0.98960 0.13600
H 	H 	0.96590 0.59710 0.88870 -0.00800
H 	H 	0.88280 0.48020 0.20620 0.05900
H 	H 	0.88690 0.48720 0.30970 0.06500
H 	H 	0.89600 0.91160 0.25840 0.06000
H 	H 	0.88600 0.90590 0.15560 0.05800
H 	H 	0.77760 0.81150 0.46690 0.13200
H 	H 	0.77390 0.81300 0.57030 -0.02100
H 	H 	0.01010 0.61990 0.56180 -0.00600
H 	H 	0.01990 0.61290 0.45770 0.12800
H 	H 	0.11600 0.72100 0.81490 0.03400
H 	H 	0.26380 0.73030 0.81730 0.07400
H 	H 	0.34420 0.66730 0.64170 0.07200
H 	H 	0.19390 0.66350 0.63880 0.03400
H 	H 	0.41640 0.66730 0.82050 0.07600
H 	H 	0.56120 0.68060 0.82470 0.03100
H 	H 	0.59290 0.76560 0.64600 0.03000
H 	H 	0.44660 0.75310 0.64220 0.07500
H 	H 	0.78360 0.00190 0.82350 0.03300
H 	H 	0.79010 0.15140 0.82410 0.07400
H 	H 	0.91270 0.14470 0.64770 0.08400
H 	H 	0.90170 0.99660 0.64670 0.03700
H 	H 	0.87230 0.25340 0.82600 0.07400
H 	H 	0.88490 0.40120 0.82780 0.03500
H 	H 	0.86690 0.44610 0.64880 0.03400
H 	H 	0.85470 0.29860 0.64750 0.07300
H 	H 	0.27440 0.21440 0.08170 -0.01800
H 	H 	0.26540 0.21820 0.97920 0.12500
H 	H 	0.01660 0.40780 0.01040 0.13600
H 	H 	0.03410 0.40290 0.11130 -0.00800
H 	H 	0.11720 0.51980 0.79380 0.05900
H 	H 	0.11310 0.51280 0.69030 0.06500
H 	H 	0.10400 0.08840 0.74160 0.06000
H 	H 	0.11400 0.09410 0.84440 0.05800
H 	H 	0.22240 0.18850 0.53310 0.13200
H 	H 	0.22610 0.18700 0.42970 -0.02100
H 	H 	0.98990 0.38010 0.43820 -0.00600
H 	H 	0.98010 0.38710 0.54230 0.12800
H 	H 	0.88400 0.27900 0.18510 0.03400
H 	H 	0.73620 0.26970 0.18270 0.07400
H 	H 	0.65580 0.33270 0.35830 0.07200
H 	H 	0.80610 0.33650 0.36120 0.03400
H 	H 	0.58360 0.33270 0.17950 0.07600
H 	H 	0.43880 0.31940 0.17530 0.03100
H 	H 	0.40710 0.23440 0.35400 0.03000
H 	H 	0.55340 0.24690 0.35780 0.07500
H 	H 	0.21640 0.99810 0.17650 0.03300
H 	H 	0.20990 0.84860 0.17590 0.07400
H 	H 	0.08730 0.85530 0.35230 0.08400
H 	H 	0.09830 0.00340 0.35330 0.03700
H 	H 	0.12770 0.74660 0.17400 0.07400
H 	H 	0.11510 0.59880 0.17220 0.03500
H 	H 	0.13310 0.55390 0.35120 0.03400
H 	H 	0.14530 0.70140 0.35250 0.07300
C 	C 	0.77777 0.74630 0.93292 0.13500
C 	C 	0.78295 0.74501 0.99423 -0.22100
C 	C 	0.86166 0.68778 0.01512 0.22800
C 	C 	0.93053 0.63187 0.97594 -0.22800
C 	C 	0.91958 0.63580 0.91543 0.13900
C 	C 	0.87790 0.77205 0.09608 0.21800
C 	C 	0.88400 0.77456 0.16120 -0.05900
C 	C 	0.88415 0.69469 0.20163 0.03200
C 	C 	0.88303 0.61095 0.18063 -0.05700
C 	C 	0.87811 0.60628 0.11527 0.21900
C 	C 	0.88382 0.53498 0.22035 -0.02000
C 	C 	0.88625 0.53928 0.28277 -0.03100
C 	C 	0.88764 0.61839 0.30374 -0.04800
C 	C 	0.88797 0.69896 0.26376 0.02600
C 	C 	0.89182 0.78045 0.28446 -0.05200
C 	C 	0.89235 0.85771 0.24447 -0.03100
C 	C 	0.88723 0.85370 0.18245 -0.02300
C 	C 	0.89676 0.78516 0.34951 0.20800
C 	C 	0.89122 0.62204 0.37010 0.21500
C 	C 	0.89716 0.70993 0.45206 0.23400
C 	C 	0.82531 0.77122 0.48554 -0.23900
C 	C 	0.82433 0.77263 0.54729 0.14800
C 	C 	0.96299 0.65918 0.54220 0.13700
C 	C 	0.96886 0.65360 0.48000 -0.22800
C 	C 	0.04058 0.69364 0.72466 0.38800
C 	C 	0.13833 0.69364 0.72665 -0.12300
C 	C 	0.16122 0.71189 0.77949 0.05100
C 	C 	0.25044 0.71690 0.78103 -0.10900
C 	C 	0.32048 0.70223 0.72923 0.04600
C 	C 	0.29814 0.68013 0.67644 -0.10800
C 	C 	0.20788 0.67693 0.67483 0.04600
C 	C 	0.41516 0.70947 0.73105 0.05200
C 	C 	0.45163 0.68752 0.78534 -0.11600
C 	C 	0.53850 0.69520 0.78782 0.05400
C 	C 	0.59298 0.72451 0.73600 -0.12200
C 	C 	0.55725 0.74602 0.68127 0.05200
C 	C 	0.46955 0.73855 0.67895 -0.11500
C 	C 	0.68986 0.72849 0.73813 0.39100
C 	C 	0.84355 0.88421 0.73498 0.38800
C 	C 	0.84350 0.98307 0.73539 -0.11600
C 	C 	0.80966 0.03050 0.78794 0.04900
C 	C 	0.81412 0.12021 0.78832 -0.11200
C 	C 	0.85378 0.16455 0.73634 0.05100
C 	C 	0.88646 0.11651 0.68336 -0.11000
C 	C 	0.88052 0.02706 0.68283 0.04800
C 	C 	0.86196 0.25971 0.73699 0.04700
C 	C 	0.87114 0.29204 0.79023 -0.10700
C 	C 	0.87871 0.38102 0.79151 0.04500
C 	C 	0.87704 0.43950 0.73849 -0.11400
C 	C 	0.86800 0.40749 0.68462 0.04500
C 	C 	0.86062 0.31891 0.68385 -0.10700
C 	C 	0.88136 0.53740 0.73909 0.39300
C 	C 	0.22223 0.25370 0.06708 0.13500
C 	C 	0.21705 0.25499 0.00577 -0.22100
C 	C 	0.13834 0.31222 0.98488 0.22800
C 	C 	0.06947 0.36813 0.02406 -0.22800
C 	C 	0.08042 0.36420 0.08457 0.13900
C 	C 	0.12210 0.22795 0.90392 0.21800
C 	C 	0.11600 0.22544 0.83880 -0.05900
C 	C 	0.11585 0.30531 0.79837 0.03200
C 	C 	0.11697 0.38905 0.81937 -0.05700
C 	C 	0.12189 0.39372 0.88473 0.21900
C 	C 	0.11618 0.46502 0.77965 -0.02000
C 	C 	0.11375 0.46072 0.71723 -0.03100
C 	C 	0.11236 0.38161 0.69626 -0.04800
C 	C 	0.11203 0.30104 0.73624 0.02600
C 	C 	0.10818 0.21955 0.71554 -0.05200
C 	C 	0.10765 0.14229 0.75553 -0.03100
C 	C 	0.11277 0.14630 0.81755 -0.02300
C 	C 	0.10324 0.21484 0.65049 0.20800
C 	C 	0.10878 0.37796 0.62990 0.21500
C 	C 	0.10284 0.29007 0.54794 0.23400
C 	C 	0.17469 0.22878 0.51446 -0.23900
C 	C 	0.17567 0.22737 0.45271 0.14800
C 	C 	0.03701 0.34082 0.45780 0.13700
C 	C 	0.03114 0.34640 0.52000 -0.22800
C 	C 	0.95942 0.30636 0.27534 0.38800
C 	C 	0.86167 0.30636 0.27335 -0.12300
C 	C 	0.83878 0.28811 0.22051 0.05100
C 	C 	0.74956 0.28310 0.21897 -0.10900
C 	C 	0.67952 0.29777 0.27077 0.04600
C 	C 	0.70186 0.31987 0.32356 -0.10800
C 	C 	0.79212 0.32307 0.32517 0.04600
C 	C 	0.58484 0.29053 0.26895 0.05200
C 	C 	0.54837 0.31248 0.21466 -0.11600
C 	C 	0.46150 0.30480 0.21218 0.05400
C 	C 	0.40702 0.27549 0.26400 -0.12200
C 	C 	0.44275 0.25398 0.31873 0.05200
C 	C 	0.53045 0.26145 0.32105 -0.11500
C 	C 	0.31014 0.27151 0.26187 0.39100
C 	C 	0.15645 0.11579 0.26502 0.38800
C 	C 	0.15650 0.01693 0.26461 -0.11600
C 	C 	0.19034 0.96950 0.21206 0.04900
C 	C 	0.18588 0.87979 0.21168 -0.11200
C 	C 	0.14622 0.83545 0.26366 0.05100
C 	C 	0.11354 0.88349 0.31664 -0.11000
C 	C 	0.11948 0.97294 0.31717 0.04800
C 	C 	0.13804 0.74029 0.26301 0.04700
C 	C 	0.12886 0.70796 0.20977 -0.10700
C 	C 	0.12129 0.61898 0.20849 0.04500
C 	C 	0.12296 0.56050 0.26151 -0.11400
C 	C 	0.13200 0.59251 0.31538 0.04500
C 	C 	0.13938 0.68109 0.31615 -0.10700
C 	C 	0.11864 0.46260 0.26091 0.39300
N 	N 	0.84589 0.69243 0.89362 -0.26900
N 	N 	0.87023 0.68906 0.07848 -0.19700
N 	N 	0.89767 0.70434 0.38780 -0.19800
N 	N 	0.89232 0.71875 0.57530 -0.27300
N 	N 	0.15411 0.30757 0.10638 -0.26900
N 	N 	0.12977 0.31094 0.92152 -0.19700
N 	N 	0.10233 0.29566 0.61220 -0.19800
N 	N 	0.10768 0.28125 0.42470 -0.27300
O 	O 	0.87933 0.83666 0.05921 -0.22500
O 	O 	0.87813 0.53631 0.09457 -0.23100
O 	O 	0.90197 0.85396 0.37055 -0.22500
O 	O 	0.88902 0.55686 0.40718 -0.22500
O 	O 	0.88340 0.58349 0.68842 -0.46800
O 	O 	0.88173 0.56539 0.78967 -0.45500
O 	O 	0.81721 0.84415 0.78575 -0.44800
O 	O 	0.87201 0.84755 0.68445 -0.46100
O 	O 	0.02092 0.68627 0.67374 -0.44700
O 	O 	0.98459 0.70138 0.77500 -0.46400
O 	O 	0.73847 0.74825 0.68843 -0.45500
O 	O 	0.71619 0.71004 0.78948 -0.45900
O 	O 	0.12067 0.16334 0.94079 -0.22500
O 	O 	0.12187 0.46369 0.90543 -0.23100
O 	O 	0.09803 0.14604 0.62945 -0.22500
O 	O 	0.11098 0.44314 0.59282 -0.22500
O 	O 	0.11660 0.41651 0.31158 -0.46800
O 	O 	0.11827 0.43461 0.21033 -0.45500
O 	O 	0.18279 0.15585 0.21425 -0.44800
O 	O 	0.12799 0.15245 0.31555 -0.46100
O 	O 	0.97908 0.31373 0.32626 -0.44700
O 	O 	0.01541 0.29862 0.22500 -0.46400
O 	O 	0.26153 0.25175 0.31157 -0.45500
O 	O 	0.28381 0.28996 0.21052 -0.45900
