data_crystal

_cell_length_a 8.79920
_cell_length_b 10.26960
_cell_length_c 18.62440
_cell_angle_alpha 90.00000
_cell_angle_beta  90.00000
_cell_angle_gamma 90.00000

_symmetry_space_group_name_	'P 1'
_symmetry_space_group_name_H-M	'P 1'

loop_
_symmetry_equiv_pos_as_xyz
  x,y,z

loop_
_atom_site_label
_atom_site_type_symbol
_atom_site_fract_x
_atom_site_fract_y
_atom_site_fract_z
_atom_site_charge
Zn	Zn	0.13311 0.02643 0.59917 1.19600
Zn	Zn	0.63311 0.97357 0.40083 1.19500
Zn	Zn	0.13311 0.47357 0.09917 1.19600
Zn	Zn	0.63311 0.52643 0.90083 1.19500
H 	H 	0.83280 0.96290 0.52800 -0.03800
H 	H 	0.23590 0.37100 0.38790 0.00800
H 	H 	0.82510 0.29650 0.26620 0.17800
H 	H 	0.73770 0.19520 0.30590 0.15500
H 	H 	0.95760 0.68910 0.70760 0.06200
H 	H 	0.84640 0.54250 0.78460 -0.01800
H 	H 	0.60720 0.81850 0.87490 -0.00900
H 	H 	0.70810 0.97050 0.79830 0.06700
H 	H 	0.33280 0.03710 0.47200 -0.04100
H 	H 	0.73590 0.62900 0.61210 0.00400
H 	H 	0.32510 0.70350 0.73380 0.18500
H 	H 	0.23770 0.80480 0.69410 0.16000
H 	H 	0.45760 0.31090 0.29240 0.06800
H 	H 	0.34640 0.45750 0.21540 -0.01400
H 	H 	0.10720 0.18150 0.12510 -0.00500
H 	H 	0.20810 0.02950 0.20170 0.06800
H 	H 	0.83280 0.53710 0.02800 -0.03600
H 	H 	0.23590 0.12900 0.88790 0.00800
H 	H 	0.82510 0.20350 0.76620 0.17800
H 	H 	0.73770 0.30480 0.80590 0.15500
H 	H 	0.95760 0.81090 0.20760 0.06100
H 	H 	0.84640 0.95750 0.28460 -0.01800
H 	H 	0.60720 0.68150 0.37490 -0.00900
H 	H 	0.70810 0.52950 0.29830 0.06600
H 	H 	0.33280 0.46290 0.97200 -0.03500
H 	H 	0.73590 0.87100 0.11210 0.00400
H 	H 	0.32510 0.79650 0.23380 0.18500
H 	H 	0.23770 0.69520 0.19410 0.16000
H 	H 	0.45760 0.18910 0.79240 0.06800
H 	H 	0.34640 0.04250 0.71540 -0.01500
H 	H 	0.10720 0.31850 0.62510 -0.00500
H 	H 	0.20810 0.47050 0.70170 0.06900
C 	C 	0.87810 0.02640 0.49950 0.06800
C 	C 	0.15320 0.31660 0.39607 0.10400
C 	C 	0.92340 0.24240 0.35322 0.14000
C 	C 	0.91900 0.16010 0.41368 -0.06500
C 	C 	0.03800 0.16740 0.46219 0.14000
C 	C 	0.91340 0.94420 0.69311 0.28300
C 	C 	0.88610 0.71710 0.74094 -0.08400
C 	C 	0.84480 0.84700 0.74438 -0.01700
C 	C 	0.81990 0.63000 0.78766 0.05400
C 	C 	0.67820 0.79270 0.84070 0.05400
C 	C 	0.73850 0.88390 0.79510 -0.08300
C 	C 	0.37810 0.97360 0.50050 0.09100
C 	C 	0.65320 0.68340 0.60393 0.10000
C 	C 	0.42340 0.75760 0.64678 0.15600
C 	C 	0.41900 0.83990 0.58632 -0.04700
C 	C 	0.53800 0.83260 0.53781 0.12000
C 	C 	0.41340 0.05580 0.30689 0.31600
C 	C 	0.38610 0.28290 0.25906 -0.07700
C 	C 	0.34480 0.15300 0.25562 -0.02200
C 	C 	0.31990 0.37000 0.21234 0.05500
C 	C 	0.17820 0.20730 0.15930 0.05400
C 	C 	0.23850 0.11610 0.20490 -0.07600
C 	C 	0.87810 0.47360 0.99950 0.06400
C 	C 	0.15320 0.18340 0.89607 0.10400
C 	C 	0.92340 0.25760 0.85322 0.14200
C 	C 	0.91900 0.33990 0.91368 -0.06700
C 	C 	0.03800 0.33260 0.96219 0.14300
C 	C 	0.91340 0.55580 0.19311 0.29000
C 	C 	0.88610 0.78290 0.24094 -0.08200
C 	C 	0.84480 0.65300 0.24438 -0.01900
C 	C 	0.81990 0.87000 0.28766 0.05300
C 	C 	0.67820 0.70730 0.34070 0.05300
C 	C 	0.73850 0.61610 0.29510 -0.08100
C 	C 	0.37810 0.52640 0.00050 0.08100
C 	C 	0.65320 0.81660 0.10393 0.10000
C 	C 	0.42340 0.74240 0.14678 0.15500
C 	C 	0.41900 0.66010 0.08632 -0.04700
C 	C 	0.53800 0.66740 0.03781 0.11900
C 	C 	0.41340 0.44420 0.80689 0.31800
C 	C 	0.38610 0.21710 0.75906 -0.07600
C 	C 	0.34480 0.34700 0.75562 -0.02300
C 	C 	0.31990 0.13000 0.71234 0.05500
C 	C 	0.17820 0.29270 0.65930 0.05400
C 	C 	0.23850 0.38390 0.70490 -0.07500
N 	N 	0.01020 0.08180 0.51705 -0.28900
N 	N 	0.16070 0.24530 0.45575 -0.16700
N 	N 	0.81550 0.06800 0.43857 -0.25900
N 	N 	0.04440 0.32130 0.34628 -0.13800
N 	N 	0.81590 0.24500 0.30240 -0.32700
N 	N 	0.71940 0.66650 0.83703 -0.27000
N 	N 	0.51020 0.91820 0.48295 -0.29700
N 	N 	0.66070 0.75470 0.54425 -0.16700
N 	N 	0.31550 0.93200 0.56143 -0.26100
N 	N 	0.54440 0.67870 0.65372 -0.15000
N 	N 	0.31590 0.75500 0.69760 -0.33100
N 	N 	0.21940 0.33350 0.16297 -0.26700
N 	N 	0.01020 0.41820 0.01705 -0.28700
N 	N 	0.16070 0.25470 0.95575 -0.16800
N 	N 	0.81550 0.43200 0.93857 -0.25800
N 	N 	0.04440 0.17870 0.84628 -0.13800
N 	N 	0.81590 0.25500 0.80240 -0.32800
N 	N 	0.71940 0.83350 0.33703 -0.26900
N 	N 	0.51020 0.58180 0.98295 -0.29400
N 	N 	0.66070 0.74530 0.04425 -0.16700
N 	N 	0.31550 0.56800 0.06143 -0.26100
N 	N 	0.54440 0.82130 0.15372 -0.15000
N 	N 	0.31590 0.74500 0.19760 -0.33100
N 	N 	0.21940 0.16650 0.66297 -0.26800
O 	O 	0.03270 0.90190 0.66077 -0.44500
O 	O 	0.85700 0.05140 0.68506 -0.32000
O 	O 	0.53270 0.09810 0.33923 -0.47400
O 	O 	0.35700 0.94860 0.31494 -0.32000
O 	O 	0.03270 0.59810 0.16077 -0.45000
O 	O 	0.85700 0.44860 0.18506 -0.32400
O 	O 	0.53270 0.40190 0.83923 -0.47500
O 	O 	0.35700 0.55140 0.81494 -0.32300
