data_crystal

_cell_length_a 8.90820
_cell_length_b 10.55330
_cell_length_c 18.66270
_cell_angle_alpha 90.00000
_cell_angle_beta  90.00000
_cell_angle_gamma 90.00000

_symmetry_space_group_name_	'P 1'
_symmetry_space_group_name_H-M	'P 1'

loop_
_symmetry_equiv_pos_as_xyz
  x,y,z

loop_
_atom_site_label
_atom_site_type_symbol
_atom_site_fract_x
_atom_site_fract_y
_atom_site_fract_z
_atom_site_charge
Zn	Zn	0.87050 0.98471 0.39907 1.19100
Zn	Zn	0.37050 0.01529 0.60093 1.19200
Zn	Zn	0.87050 0.51529 0.89907 1.19400
Zn	Zn	0.37050 0.48471 0.10093 1.19200
H 	H 	0.17880 0.03760 0.47000 -0.03100
H 	H 	0.76080 0.64130 0.60040 0.00500
H 	H 	0.15820 0.69810 0.72770 0.17500
H 	H 	0.24990 0.79780 0.69190 0.15300
H 	H 	0.02710 0.32390 0.28700 0.06900
H 	H 	0.14980 0.46830 0.21320 -0.02400
H 	H 	0.40760 0.20720 0.13620 -0.01100
H 	H 	0.29560 0.05500 0.20830 0.07200
H 	H 	0.67880 0.96240 0.53000 -0.03300
H 	H 	0.26080 0.35870 0.39960 0.00200
H 	H 	0.65820 0.30190 0.27230 0.18200
H 	H 	0.74990 0.20220 0.30810 0.15600
H 	H 	0.52710 0.67610 0.71300 0.07400
H 	H 	0.64980 0.53170 0.78680 -0.02100
H 	H 	0.90760 0.79280 0.86380 -0.00800
H 	H 	0.79560 0.94500 0.79170 0.07200
H 	H 	0.17880 0.46240 0.97000 -0.02700
H 	H 	0.76080 0.85870 0.10040 0.00500
H 	H 	0.15820 0.80190 0.22770 0.17600
H 	H 	0.24990 0.70220 0.19190 0.15200
H 	H 	0.02710 0.17610 0.78700 0.06800
H 	H 	0.14980 0.03170 0.71320 -0.02500
H 	H 	0.40760 0.29280 0.63620 -0.01100
H 	H 	0.29560 0.44500 0.70830 0.07100
H 	H 	0.67880 0.53760 0.03000 -0.02900
H 	H 	0.26080 0.14130 0.89960 0.00200
H 	H 	0.65820 0.19810 0.77230 0.18200
H 	H 	0.74990 0.29780 0.80810 0.15600
H 	H 	0.52710 0.82390 0.21300 0.07400
H 	H 	0.64980 0.96830 0.28680 -0.02200
H 	H 	0.90760 0.70720 0.36380 -0.00700
H 	H 	0.79560 0.55500 0.29170 0.07300
C 	C 	0.13030 0.97650 0.49740 0.06000
C 	C 	0.84360 0.69410 0.59480 0.11200
C 	C 	0.06520 0.76090 0.64020 0.13900
C 	C 	0.07960 0.84310 0.58120 -0.06500
C 	C 	0.96680 0.84020 0.53230 0.13900
C 	C 	0.07760 0.07530 0.30430 0.27500
C 	C 	0.10480 0.29800 0.25700 -0.10000
C 	C 	0.15430 0.17250 0.25600 -0.00300
C 	C 	0.17720 0.38330 0.21110 0.07400
C 	C 	0.32870 0.23020 0.16620 0.05900
C 	C 	0.26340 0.13880 0.21040 -0.09200
C 	C 	0.63030 0.02350 0.50260 0.07800
C 	C 	0.34360 0.30590 0.40520 0.10900
C 	C 	0.56520 0.23910 0.35980 0.15200
C 	C 	0.57960 0.15690 0.41880 -0.05100
C 	C 	0.46680 0.15980 0.46770 0.12200
C 	C 	0.57760 0.92470 0.69570 0.30500
C 	C 	0.60480 0.70200 0.74300 -0.09400
C 	C 	0.65430 0.82750 0.74400 -0.00800
C 	C 	0.67720 0.61670 0.78890 0.07500
C 	C 	0.82870 0.76980 0.83380 0.05900
C 	C 	0.76340 0.86120 0.78960 -0.08500
C 	C 	0.13030 0.52350 0.99740 0.05300
C 	C 	0.84360 0.80590 0.09480 0.11200
C 	C 	0.06520 0.73910 0.14020 0.14000
C 	C 	0.07960 0.65690 0.08120 -0.06800
C 	C 	0.96680 0.65980 0.03230 0.14100
C 	C 	0.07760 0.42470 0.80430 0.28200
C 	C 	0.10480 0.20200 0.75700 -0.09900
C 	C 	0.15430 0.32750 0.75600 -0.00500
C 	C 	0.17720 0.11670 0.71110 0.07300
C 	C 	0.32870 0.26980 0.66620 0.05800
C 	C 	0.26340 0.36120 0.71040 -0.09000
C 	C 	0.63030 0.47650 0.00260 0.07200
C 	C 	0.34360 0.19410 0.90520 0.10900
C 	C 	0.56520 0.26090 0.85980 0.15200
C 	C 	0.57960 0.34310 0.91880 -0.05100
C 	C 	0.46680 0.34020 0.96770 0.12300
C 	C 	0.57760 0.57530 0.19570 0.30700
C 	C 	0.60480 0.79800 0.24300 -0.09400
C 	C 	0.65430 0.67250 0.24400 -0.00900
C 	C 	0.67720 0.88330 0.28890 0.07400
C 	C 	0.82870 0.73020 0.33380 0.05900
C 	C 	0.76340 0.63880 0.28960 -0.08500
N 	N 	0.99610 0.92510 0.47820 -0.28900
N 	N 	0.84330 0.76880 0.53610 -0.17100
N 	N 	0.18730 0.93160 0.55930 -0.25500
N 	N 	0.94410 0.68720 0.64380 -0.14400
N 	N 	0.17090 0.75100 0.69320 -0.32200
N 	N 	0.28000 0.35030 0.16590 -0.27300
N 	N 	0.49610 0.07490 0.52180 -0.29500
N 	N 	0.34330 0.23120 0.46390 -0.17100
N 	N 	0.68730 0.06840 0.44070 -0.25700
N 	N 	0.44410 0.31280 0.35620 -0.15400
N 	N 	0.67090 0.24900 0.30680 -0.32500
N 	N 	0.78000 0.64970 0.83410 -0.27100
N 	N 	0.99610 0.57490 0.97820 -0.28500
N 	N 	0.84330 0.73120 0.03610 -0.17100
N 	N 	0.18730 0.56840 0.05930 -0.25400
N 	N 	0.94410 0.81280 0.14380 -0.14400
N 	N 	0.17090 0.74900 0.19320 -0.32300
N 	N 	0.28000 0.14970 0.66590 -0.27300
N 	N 	0.49610 0.42510 0.02180 -0.29500
N 	N 	0.34330 0.26880 0.96390 -0.17100
N 	N 	0.68730 0.43160 0.94070 -0.25700
N 	N 	0.44410 0.18720 0.85620 -0.15400
N 	N 	0.67090 0.25100 0.80680 -0.32500
N 	N 	0.78000 0.85030 0.33410 -0.27100
O 	O 	0.96320 0.11520 0.33870 -0.44100
O 	O 	0.12710 0.96680 0.30600 -0.31900
O 	O 	0.46320 0.88480 0.66130 -0.46600
O 	O 	0.62710 0.03320 0.69400 -0.31900
O 	O 	0.96320 0.38480 0.83870 -0.44600
O 	O 	0.12710 0.53320 0.80600 -0.32300
O 	O 	0.46320 0.61520 0.16130 -0.46700
O 	O 	0.62710 0.46680 0.19400 -0.32200
