data_crystal

_cell_length_a 18.22800
_cell_length_b 18.22800
_cell_length_c 18.22800
_cell_angle_alpha 60.00000
_cell_angle_beta  60.00000
_cell_angle_gamma 60.00000

_symmetry_space_group_name_	'P 1'
_symmetry_space_group_name_H-M	'P 1'

loop_
_symmetry_equiv_pos_as_xyz
  x,y,z

loop_
_atom_site_label
_atom_site_type_symbol
_atom_site_fract_x
_atom_site_fract_y
_atom_site_fract_z
_atom_site_charge
Zn	Zn	0.29358 0.29359 0.11924 1.21700
Zn	Zn	0.29358 0.29359 0.29359 1.21700
Zn	Zn	0.11923 0.29359 0.29359 1.21600
Zn	Zn	0.29358 0.11924 0.29359 1.21600
Zn	Zn	0.70642 0.70641 0.88076 1.21600
Zn	Zn	0.70642 0.70641 0.70641 1.21600
Zn	Zn	0.70642 0.88076 0.70641 1.21600
Zn	Zn	0.88077 0.70641 0.70641 1.21600
H 	H 	0.45570 0.45570 0.93670 0.04600
H 	H 	0.45570 0.45570 0.15190 0.04700
H 	H 	0.93670 0.15190 0.45570 0.04700
H 	H 	0.15190 0.93670 0.45570 0.04700
H 	H 	0.45570 0.93670 0.15190 0.04700
H 	H 	0.45570 0.15190 0.93670 0.04700
H 	H 	0.93670 0.45570 0.45570 0.04600
H 	H 	0.15190 0.45570 0.45570 0.04700
H 	H 	0.45570 0.15190 0.45570 0.04700
H 	H 	0.45570 0.93670 0.45570 0.04600
H 	H 	0.93670 0.45570 0.15190 0.04700
H 	H 	0.15190 0.45570 0.93670 0.04700
H 	H 	0.54430 0.54430 0.06330 0.04600
H 	H 	0.54430 0.54430 0.84810 0.04700
H 	H 	0.84810 0.06330 0.54430 0.04700
H 	H 	0.06330 0.84810 0.54430 0.04700
H 	H 	0.06330 0.54430 0.84810 0.04700
H 	H 	0.84810 0.54430 0.06330 0.04700
H 	H 	0.54430 0.06330 0.54430 0.04600
H 	H 	0.54430 0.84810 0.54430 0.04700
H 	H 	0.84810 0.54430 0.54430 0.04700
H 	H 	0.06330 0.54430 0.54430 0.04600
H 	H 	0.54430 0.06330 0.84810 0.04700
H 	H 	0.54430 0.84810 0.06330 0.04700
C 	C 	0.47340 0.47340 0.96356 -0.00900
C 	C 	0.47340 0.47340 0.08964 -0.00900
C 	C 	0.96356 0.08964 0.47340 -0.01000
C 	C 	0.08964 0.96356 0.47340 -0.01000
C 	C 	0.47340 0.96356 0.08964 -0.01000
C 	C 	0.47340 0.08964 0.96356 -0.01000
C 	C 	0.96356 0.47340 0.47340 -0.00900
C 	C 	0.08964 0.47340 0.47340 -0.00900
C 	C 	0.47340 0.08964 0.47340 -0.00900
C 	C 	0.47340 0.96356 0.47340 -0.00900
C 	C 	0.96356 0.47340 0.08964 -0.01000
C 	C 	0.08964 0.47340 0.96356 -0.01000
C 	C 	0.52660 0.52660 0.03644 -0.00900
C 	C 	0.52660 0.52660 0.91036 -0.00900
C 	C 	0.91036 0.03644 0.52660 -0.01000
C 	C 	0.03644 0.91036 0.52660 -0.01000
C 	C 	0.03644 0.52660 0.91036 -0.01000
C 	C 	0.91036 0.52660 0.03644 -0.01000
C 	C 	0.52660 0.03644 0.52660 -0.00900
C 	C 	0.52660 0.91036 0.52660 -0.00900
C 	C 	0.91036 0.52660 0.52660 -0.00900
C 	C 	0.03644 0.52660 0.52660 -0.00900
C 	C 	0.52660 0.03644 0.91036 -0.01000
C 	C 	0.52660 0.91036 0.03644 -0.01000
C 	C 	0.38850 0.38850 0.11150 0.41400
C 	C 	0.44610 0.44610 0.05390 -0.10300
C 	C 	0.11150 0.11150 0.38850 0.41300
C 	C 	0.05390 0.05390 0.44610 -0.10100
C 	C 	0.38850 0.11150 0.11150 0.41300
C 	C 	0.44610 0.05390 0.05390 -0.10100
C 	C 	0.11150 0.38850 0.38850 0.41400
C 	C 	0.05390 0.44610 0.44610 -0.10300
C 	C 	0.38850 0.11150 0.38850 0.41400
C 	C 	0.44610 0.05390 0.44610 -0.10300
C 	C 	0.11150 0.38850 0.11150 0.41300
C 	C 	0.05390 0.44610 0.05390 -0.10100
C 	C 	0.61150 0.61150 0.88850 0.41400
C 	C 	0.55390 0.55390 0.94610 -0.10300
C 	C 	0.88850 0.88850 0.61150 0.41300
C 	C 	0.94610 0.94610 0.55390 -0.10100
C 	C 	0.88850 0.61150 0.88850 0.41300
C 	C 	0.94610 0.55390 0.94610 -0.10100
C 	C 	0.61150 0.88850 0.61150 0.41400
C 	C 	0.55390 0.94610 0.55390 -0.10300
C 	C 	0.88850 0.61150 0.61150 0.41400
C 	C 	0.94610 0.55390 0.55390 -0.10300
C 	C 	0.61150 0.88850 0.88850 0.41300
C 	C 	0.55390 0.94610 0.94610 -0.10100
O 	O 	0.25000 0.25000 0.25000 -0.95300
O 	O 	0.75000 0.75000 0.75000 -0.95300
O 	O 	0.36610 0.36610 0.07322 -0.51900
O 	O 	0.36610 0.36610 0.19458 -0.51900
O 	O 	0.07322 0.19458 0.36610 -0.51900
O 	O 	0.19458 0.07322 0.36610 -0.51900
O 	O 	0.36610 0.07322 0.19458 -0.51900
O 	O 	0.36610 0.19458 0.07322 -0.51900
O 	O 	0.07322 0.36610 0.36610 -0.51900
O 	O 	0.19458 0.36610 0.36610 -0.51900
O 	O 	0.36610 0.19458 0.36610 -0.51900
O 	O 	0.36610 0.07322 0.36610 -0.51900
O 	O 	0.07322 0.36610 0.19458 -0.51900
O 	O 	0.19458 0.36610 0.07322 -0.51900
O 	O 	0.63390 0.63390 0.92678 -0.51900
O 	O 	0.63390 0.63390 0.80542 -0.51900
O 	O 	0.80542 0.92678 0.63390 -0.51900
O 	O 	0.92678 0.80542 0.63390 -0.51900
O 	O 	0.92678 0.63390 0.80542 -0.51900
O 	O 	0.80542 0.63390 0.92678 -0.51900
O 	O 	0.63390 0.92678 0.63390 -0.51900
O 	O 	0.63390 0.80542 0.63390 -0.51900
O 	O 	0.80542 0.63390 0.63390 -0.51900
O 	O 	0.92678 0.63390 0.63390 -0.51900
O 	O 	0.63390 0.92678 0.80542 -0.51900
O 	O 	0.63390 0.80542 0.92678 -0.51900
