data_crystal

_cell_length_a 11.53120
_cell_length_b 14.82190
_cell_length_c 14.82190
_cell_angle_alpha 90.00000
_cell_angle_beta  90.00000
_cell_angle_gamma 90.00000

_symmetry_space_group_name_	'P 1'
_symmetry_space_group_name_H-M	'P 1'

loop_
_symmetry_equiv_pos_as_xyz
  x,y,z

loop_
_atom_site_label
_atom_site_type_symbol
_atom_site_fract_x
_atom_site_fract_y
_atom_site_fract_z
_atom_site_charge
Zn	Zn	0.75000 0.88747 0.11253 1.23200
Zn	Zn	0.25000 0.11253 0.88747 1.23200
Zn	Zn	0.50000 0.38747 0.38747 1.23400
Zn	Zn	0.00000 0.61253 0.61253 1.22300
H 	H 	0.43860 0.36650 0.08940 0.24800
H 	H 	0.55840 0.40770 0.05370 0.23500
H 	H 	0.54630 0.30130 0.06980 0.24100
H 	H 	0.88850 0.31130 0.29100 0.25600
H 	H 	0.90210 0.41650 0.26910 0.25500
H 	H 	0.88180 0.38380 0.37080 0.26500
H 	H 	0.65230 0.20000 0.21840 0.08200
H 	H 	0.65380 0.04470 0.21240 -0.01200
H 	H 	0.89180 0.04510 0.02270 0.00200
H 	H 	0.89960 0.20080 0.02340 0.08000
H 	H 	0.93860 0.63350 0.91060 0.29300
H 	H 	0.05840 0.59230 0.94630 0.25300
H 	H 	0.04630 0.69870 0.93020 0.25700
H 	H 	0.38850 0.68870 0.70900 0.24000
H 	H 	0.40210 0.58350 0.73090 0.23800
H 	H 	0.38180 0.61620 0.62920 0.25000
H 	H 	0.15230 0.80000 0.78160 0.07800
H 	H 	0.15380 0.95530 0.78760 -0.01500
H 	H 	0.39180 0.95490 0.97730 -0.00500
H 	H 	0.39960 0.79920 0.97660 0.07300
H 	H 	0.18860 0.41060 0.86650 0.24300
H 	H 	0.30840 0.44630 0.90770 0.23300
H 	H 	0.29630 0.43020 0.80130 0.24000
H 	H 	0.63850 0.20900 0.81130 0.24300
H 	H 	0.65210 0.23090 0.91650 0.24000
H 	H 	0.63180 0.12920 0.88380 0.25200
H 	H 	0.40230 0.28160 0.70000 0.08200
H 	H 	0.40380 0.28760 0.54470 -0.01300
H 	H 	0.64180 0.47730 0.54510 -0.00500
H 	H 	0.64960 0.47660 0.70080 0.07400
H 	H 	0.68860 0.58940 0.13350 0.24900
H 	H 	0.80840 0.55370 0.09230 0.24000
H 	H 	0.79630 0.56980 0.19870 0.24600
H 	H 	0.13850 0.79100 0.18870 0.25400
H 	H 	0.15210 0.76910 0.08350 0.25200
H 	H 	0.13180 0.87080 0.11620 0.26200
H 	H 	0.90230 0.71840 0.30000 0.07400
H 	H 	0.90380 0.71240 0.45530 -0.01400
H 	H 	0.14180 0.52270 0.45490 -0.00400
H 	H 	0.14960 0.52340 0.29920 0.06700
H 	H 	0.31140 0.13350 0.58940 0.24700
H 	H 	0.19160 0.09230 0.55370 0.23000
H 	H 	0.20370 0.19870 0.56980 0.23600
H 	H 	0.86150 0.18870 0.79100 0.22600
H 	H 	0.84790 0.08350 0.76910 0.22300
H 	H 	0.86820 0.11620 0.87080 0.23600
H 	H 	0.09770 0.30000 0.71840 0.09100
H 	H 	0.09620 0.45530 0.71240 -0.01200
H 	H 	0.85820 0.45490 0.52270 -0.00700
H 	H 	0.85040 0.29920 0.52340 0.07800
H 	H 	0.81140 0.86650 0.41060 0.25200
H 	H 	0.69160 0.90770 0.44630 0.23700
H 	H 	0.70370 0.80130 0.43020 0.24300
H 	H 	0.36150 0.81130 0.20900 0.23900
H 	H 	0.34790 0.91650 0.23090 0.23600
H 	H 	0.36820 0.88380 0.12920 0.24800
H 	H 	0.59770 0.70000 0.28160 0.08200
H 	H 	0.59620 0.54470 0.28760 -0.01300
H 	H 	0.35820 0.54510 0.47730 -0.00600
H 	H 	0.35040 0.70080 0.47660 0.07200
H 	H 	0.56140 0.08940 0.36650 0.24900
H 	H 	0.44160 0.05370 0.40770 0.23600
H 	H 	0.45370 0.06980 0.30130 0.24200
H 	H 	0.11150 0.29100 0.31130 0.22600
H 	H 	0.09790 0.26910 0.41650 0.22200
H 	H 	0.11820 0.37080 0.38380 0.23600
H 	H 	0.34770 0.21840 0.20000 0.08200
H 	H 	0.34620 0.21240 0.04470 -0.01300
H 	H 	0.10820 0.02270 0.04510 -0.01200
H 	H 	0.10040 0.02340 0.20080 0.06600
H 	H 	0.06140 0.91060 0.63350 0.20500
H 	H 	0.94160 0.94630 0.59230 0.21800
H 	H 	0.95370 0.93020 0.69870 0.22700
H 	H 	0.61150 0.70900 0.68870 0.24100
H 	H 	0.59790 0.73090 0.58350 0.23900
H 	H 	0.61820 0.62920 0.61620 0.25100
H 	H 	0.84770 0.78160 0.80000 0.08600
H 	H 	0.84620 0.78760 0.95530 -0.01000
H 	H 	0.60820 0.97730 0.95490 -0.00500
H 	H 	0.60040 0.97660 0.79920 0.07300
C 	C 	0.52320 0.36110 0.09177 -0.75000
C 	C 	0.56380 0.37273 0.18785 0.43300
C 	C 	0.68530 0.36623 0.20717 -0.31500
C 	C 	0.73420 0.37948 0.29427 0.44700
C 	C 	0.86280 0.37210 0.30740 -0.78900
C 	C 	0.77660 0.21838 0.12105 0.06900
C 	C 	0.70230 0.16966 0.17752 -0.15100
C 	C 	0.70310 0.07722 0.17270 0.08300
C 	C 	0.84200 0.07732 0.06228 0.07600
C 	C 	0.84770 0.17008 0.06263 -0.15000
C 	C 	0.02320 0.63890 0.90823 -0.83600
C 	C 	0.06380 0.62727 0.81215 0.41300
C 	C 	0.18530 0.63377 0.79283 -0.30800
C 	C 	0.23420 0.62052 0.70573 0.43400
C 	C 	0.36280 0.62790 0.69260 -0.76100
C 	C 	0.27660 0.78162 0.87895 0.06700
C 	C 	0.20230 0.83034 0.82248 -0.15300
C 	C 	0.20310 0.92278 0.82730 0.07900
C 	C 	0.34200 0.92268 0.93772 0.07300
C 	C 	0.34770 0.82992 0.93737 -0.15300
C 	C 	0.27320 0.40823 0.86110 -0.74600
C 	C 	0.31380 0.31215 0.87273 0.43000
C 	C 	0.43530 0.29283 0.86623 -0.31100
C 	C 	0.48420 0.20573 0.87948 0.43800
C 	C 	0.61280 0.19260 0.87210 -0.76600
C 	C 	0.52660 0.37895 0.71838 0.06800
C 	C 	0.45230 0.32248 0.66966 -0.15200
C 	C 	0.45310 0.32730 0.57722 0.08100
C 	C 	0.59200 0.43772 0.57732 0.07400
C 	C 	0.59770 0.43737 0.67008 -0.15200
C 	C 	0.77320 0.59177 0.13890 -0.75200
C 	C 	0.81380 0.68785 0.12727 0.43200
C 	C 	0.93530 0.70717 0.13377 -0.29600
C 	C 	0.98420 0.79427 0.12052 0.47500
C 	C 	0.11280 0.80740 0.12790 -0.82700
C 	C 	0.02660 0.62105 0.28162 0.03000
C 	C 	0.95230 0.67752 0.33034 -0.11300
C 	C 	0.95310 0.67270 0.42278 0.10300
C 	C 	0.09200 0.56228 0.42268 0.05900
C 	C 	0.09770 0.56263 0.32992 -0.14200
C 	C 	0.22680 0.13890 0.59177 -0.74600
C 	C 	0.18620 0.12727 0.68785 0.43000
C 	C 	0.06470 0.13377 0.70717 -0.32600
C 	C 	0.01580 0.12052 0.79427 0.39500
C 	C 	0.88720 0.12790 0.80740 -0.69300
C 	C 	0.97340 0.28162 0.62105 0.10800
C 	C 	0.04770 0.33034 0.67752 -0.19400
C 	C 	0.04690 0.42278 0.67270 0.06000
C 	C 	0.90800 0.42268 0.56228 0.08800
C 	C 	0.90230 0.32992 0.56263 -0.16400
C 	C 	0.72680 0.86110 0.40823 -0.75300
C 	C 	0.68620 0.87273 0.31215 0.43200
C 	C 	0.56470 0.86623 0.29283 -0.31100
C 	C 	0.51580 0.87948 0.20573 0.43600
C 	C 	0.38720 0.87210 0.19260 -0.76000
C 	C 	0.47340 0.71838 0.37895 0.06800
C 	C 	0.54770 0.66966 0.32248 -0.15300
C 	C 	0.54690 0.57722 0.32730 0.08200
C 	C 	0.40800 0.57732 0.43772 0.07300
C 	C 	0.40230 0.67008 0.43737 -0.15300
C 	C 	0.47680 0.09177 0.36110 -0.75000
C 	C 	0.43620 0.18785 0.37273 0.43000
C 	C 	0.31470 0.20717 0.36623 -0.30600
C 	C 	0.26580 0.29427 0.37948 0.42700
C 	C 	0.13720 0.30740 0.37210 -0.73800
C 	C 	0.22340 0.12105 0.21838 0.06700
C 	C 	0.29770 0.17752 0.16966 -0.15300
C 	C 	0.29690 0.17270 0.07722 0.08000
C 	C 	0.15800 0.06228 0.07732 0.07100
C 	C 	0.15230 0.06263 0.17008 -0.15500
C 	C 	0.97680 0.90823 0.63890 -0.66700
C 	C 	0.93620 0.81215 0.62727 0.44900
C 	C 	0.81470 0.79283 0.63377 -0.31300
C 	C 	0.76580 0.70573 0.62052 0.43900
C 	C 	0.63720 0.69260 0.62790 -0.76500
C 	C 	0.72340 0.87895 0.78162 0.06900
C 	C 	0.79770 0.82248 0.83034 -0.15100
C 	C 	0.79690 0.82730 0.92278 0.08400
C 	C 	0.65800 0.93772 0.92268 0.07500
C 	C 	0.65230 0.93737 0.82992 -0.15200
S 	S 	0.77979 0.33706 0.11858 -0.01600
S 	S 	0.27979 0.66294 0.88142 -0.02600
S 	S 	0.52979 0.38142 0.83706 -0.02200
S 	S 	0.02979 0.61858 0.16294 -0.05300
S 	S 	0.97021 0.16294 0.61858 0.00600
S 	S 	0.47021 0.83706 0.38142 -0.02600
S 	S 	0.22021 0.11858 0.33706 -0.03300
S 	S 	0.72021 0.88142 0.66294 -0.02300
N 	N 	0.76940 0.03001 0.11523 -0.23800
N 	N 	0.26940 0.96999 0.88477 -0.24000
N 	N 	0.51940 0.38477 0.53001 -0.24000
N 	N 	0.01940 0.61523 0.46999 -0.25800
N 	N 	0.98060 0.46999 0.61523 -0.21900
N 	N 	0.48060 0.53001 0.38477 -0.24000
N 	N 	0.23060 0.11523 0.03001 -0.24100
N 	N 	0.73060 0.88477 0.96999 -0.23800
O 	O 	0.48713 0.38701 0.24605 -0.44900
O 	O 	0.67603 0.39733 0.36487 -0.45900
O 	O 	0.98713 0.61299 0.75395 -0.41400
O 	O 	0.17603 0.60267 0.63513 -0.46100
O 	O 	0.23713 0.25395 0.88701 -0.45200
O 	O 	0.42603 0.13513 0.89733 -0.45700
O 	O 	0.73713 0.74605 0.11299 -0.45000
O 	O 	0.92603 0.86487 0.10267 -0.45900
O 	O 	0.26287 0.11299 0.74605 -0.44800
O 	O 	0.07397 0.10267 0.86487 -0.45700
O 	O 	0.76287 0.88701 0.25395 -0.44600
O 	O 	0.57397 0.89733 0.13513 -0.45800
O 	O 	0.51287 0.24605 0.38701 -0.44800
O 	O 	0.32397 0.36487 0.39733 -0.45500
O 	O 	0.01287 0.75395 0.61299 -0.47900
O 	O 	0.82397 0.63513 0.60267 -0.44900
