data_crystal

_cell_length_a 9.77980
_cell_length_b 9.77980
_cell_length_c 14.82650
_cell_angle_alpha 90.00000
_cell_angle_beta  90.00000
_cell_angle_gamma 120.00000

_symmetry_space_group_name_	'P 1'
_symmetry_space_group_name_H-M	'P 1'

loop_
_symmetry_equiv_pos_as_xyz
  x,y,z

loop_
_atom_site_label
_atom_site_type_symbol
_atom_site_fract_x
_atom_site_fract_y
_atom_site_fract_z
_atom_site_charge
Fe	Fe	0.78520 0.21480 0.25000 1.31100
Fe	Fe	0.78520 0.57040 0.25000 1.31100
Fe	Fe	0.42960 0.21480 0.25000 1.31100
Fe	Fe	0.21480 0.78520 0.75000 1.31100
Fe	Fe	0.57040 0.78520 0.75000 1.31100
Fe	Fe	0.21480 0.42960 0.75000 1.31100
H 	H 	0.58780 0.17560 0.97710 0.07500
H 	H 	0.82440 0.41220 0.97710 0.07500
H 	H 	0.58780 0.41220 0.97710 0.07600
H 	H 	0.58780 0.17560 0.52290 0.07600
H 	H 	0.82440 0.41220 0.52290 0.07600
H 	H 	0.58780 0.41220 0.52290 0.07600
H 	H 	0.17560 0.58780 0.02290 0.07500
H 	H 	0.41220 0.82440 0.02290 0.07500
H 	H 	0.41220 0.58780 0.02290 0.07600
H 	H 	0.17560 0.58780 0.47710 0.07600
H 	H 	0.41220 0.82440 0.47710 0.07600
H 	H 	0.41220 0.58780 0.47710 0.07600
C 	C 	0.54290 0.08590 0.11570 0.36500
C 	C 	0.91410 0.45700 0.11570 0.36500
C 	C 	0.54300 0.45710 0.11570 0.36600
C 	C 	0.54290 0.08590 0.38430 0.36600
C 	C 	0.91410 0.45700 0.38430 0.36600
C 	C 	0.54300 0.45710 0.38430 0.36600
C 	C 	0.08590 0.54290 0.88430 0.36500
C 	C 	0.45700 0.91410 0.88430 0.36500
C 	C 	0.45710 0.54300 0.88430 0.36600
C 	C 	0.08590 0.54290 0.61570 0.36600
C 	C 	0.45700 0.91410 0.61570 0.36600
C 	C 	0.45710 0.54300 0.61570 0.36600
C 	C 	0.53540 0.07080 0.01860 -0.08200
C 	C 	0.92920 0.46460 0.01860 -0.08200
C 	C 	0.53540 0.46460 0.01860 -0.08300
C 	C 	0.53540 0.07080 0.48140 -0.08300
C 	C 	0.92920 0.46460 0.48140 -0.08300
C 	C 	0.53540 0.46460 0.48140 -0.08300
C 	C 	0.07080 0.53540 0.98140 -0.08200
C 	C 	0.46460 0.92920 0.98140 -0.08200
C 	C 	0.46460 0.53540 0.98140 -0.08300
C 	C 	0.07080 0.53540 0.51860 -0.08300
C 	C 	0.46460 0.92920 0.51860 -0.08300
C 	C 	0.46460 0.53540 0.51860 -0.08300
O 	O 	0.44000 0.11000 0.15000 -0.42900
O 	O 	0.89000 0.33000 0.15000 -0.42800
O 	O 	0.67000 0.56000 0.15000 -0.42900
O 	O 	0.44000 0.11000 0.35000 -0.42900
O 	O 	0.89000 0.33000 0.35000 -0.42900
O 	O 	0.67000 0.56000 0.35000 -0.42900
O 	O 	0.11000 0.44000 0.85000 -0.42900
O 	O 	0.33000 0.89000 0.85000 -0.42800
O 	O 	0.56000 0.67000 0.85000 -0.42900
O 	O 	0.11000 0.44000 0.65000 -0.42900
O 	O 	0.33000 0.89000 0.65000 -0.42900
O 	O 	0.56000 0.67000 0.65000 -0.42900
O 	O 	0.65680 0.07730 0.15970 -0.38700
O 	O 	0.92270 0.57950 0.15970 -0.38700
O 	O 	0.42050 0.34320 0.15970 -0.38700
O 	O 	0.65680 0.07730 0.34030 -0.38700
O 	O 	0.92270 0.57950 0.34030 -0.38700
O 	O 	0.42050 0.34320 0.34030 -0.38700
O 	O 	0.07730 0.65680 0.84030 -0.38700
O 	O 	0.57950 0.92270 0.84030 -0.38700
O 	O 	0.34320 0.42050 0.84030 -0.38700
O 	O 	0.07730 0.65680 0.65970 -0.38700
O 	O 	0.57950 0.92270 0.65970 -0.38700
O 	O 	0.34320 0.42050 0.65970 -0.38700
O 	O 	0.66670 0.33330 0.25000 -0.56000
O 	O 	0.33330 0.66670 0.75000 -0.56000
O 	O 	0.89770 0.10230 0.25000 -0.21000
O 	O 	0.89770 0.79540 0.25000 -0.21000
O 	O 	0.20460 0.10230 0.25000 -0.21000
O 	O 	0.10230 0.89770 0.75000 -0.21000
O 	O 	0.79540 0.89770 0.75000 -0.21000
O 	O 	0.10230 0.20460 0.75000 -0.21000
