data_crystal

_cell_length_a 12.66300
_cell_length_b 13.87110
_cell_length_c 13.87110
_cell_angle_alpha 120.00000
_cell_angle_beta  90.00000
_cell_angle_gamma 90.00000

_symmetry_space_group_name_	'P 1'
_symmetry_space_group_name_H-M	'P 1'

loop_
_symmetry_equiv_pos_as_xyz
  x,y,z

loop_
_atom_site_label
_atom_site_type_symbol
_atom_site_fract_x
_atom_site_fract_y
_atom_site_fract_z
_atom_site_charge
Fe	Fe	0.25000 0.74846 0.25158 1.29600
Fe	Fe	0.25000 0.74842 0.49688 1.29600
Fe	Fe	0.25000 0.50312 0.25154 1.29600
Fe	Fe	0.75000 0.25158 0.74846 1.29600
Fe	Fe	0.75000 0.49688 0.74842 1.29500
Fe	Fe	0.75000 0.25154 0.50312 1.29500
H 	H 	0.09775 0.46310 0.92620 0.08100
H 	H 	0.09775 0.07380 0.53690 0.08100
H 	H 	0.09775 0.46310 0.53689 0.08200
H 	H 	0.40225 0.46310 0.92620 0.08200
H 	H 	0.40225 0.07380 0.53690 0.08200
H 	H 	0.40225 0.46310 0.53689 0.08200
H 	H 	0.90225 0.92620 0.46311 0.08100
H 	H 	0.90225 0.53690 0.07379 0.08100
H 	H 	0.90225 0.53689 0.46310 0.08200
H 	H 	0.59775 0.92620 0.46311 0.08200
H 	H 	0.59775 0.53690 0.07379 0.08200
H 	H 	0.59775 0.53689 0.46310 0.08200
C 	C 	0.11430 0.55482 0.10957 0.37800
C 	C 	0.11430 0.89043 0.44525 0.37800
C 	C 	0.11430 0.55475 0.44518 0.37800
C 	C 	0.38570 0.55482 0.10957 0.37800
C 	C 	0.38570 0.89043 0.44525 0.37800
C 	C 	0.38570 0.55475 0.44518 0.37800
C 	C 	0.88570 0.10957 0.55482 0.37800
C 	C 	0.88570 0.44524 0.89043 0.37800
C 	C 	0.88570 0.44518 0.55475 0.37800
C 	C 	0.61430 0.10957 0.55482 0.37800
C 	C 	0.61430 0.44524 0.89043 0.37800
C 	C 	0.61430 0.44518 0.55475 0.37800
C 	C 	0.05288 0.50150 0.00296 -0.08100
C 	C 	0.05288 0.99704 0.49854 -0.08100
C 	C 	0.05288 0.50145 0.49850 -0.08200
C 	C 	0.44712 0.50150 0.00296 -0.08200
C 	C 	0.44712 0.99704 0.49854 -0.08200
C 	C 	0.44712 0.50145 0.49850 -0.08200
C 	C 	0.94712 0.00296 0.50150 -0.08100
C 	C 	0.94712 0.49854 0.99704 -0.08100
C 	C 	0.94712 0.49850 0.50145 -0.08200
C 	C 	0.55288 0.00296 0.50150 -0.08200
C 	C 	0.55288 0.49854 0.99704 -0.08200
C 	C 	0.55288 0.49850 0.50145 -0.08200
O 	O 	0.25000 0.66667 0.33333 -0.59200
O 	O 	0.75000 0.33333 0.66667 -0.59200
O 	O 	0.14395 0.49402 0.14938 -0.40700
O 	O 	0.14395 0.85062 0.34464 -0.40600
O 	O 	0.14395 0.65536 0.50598 -0.40700
O 	O 	0.35605 0.49402 0.14938 -0.40700
O 	O 	0.35605 0.85062 0.34464 -0.40700
O 	O 	0.35605 0.65536 0.50598 -0.40700
O 	O 	0.85605 0.14938 0.49402 -0.40700
O 	O 	0.85605 0.34464 0.85062 -0.40600
O 	O 	0.85605 0.50598 0.65536 -0.40700
O 	O 	0.64395 0.14938 0.49402 -0.40700
O 	O 	0.64395 0.34464 0.85062 -0.40700
O 	O 	0.64395 0.50598 0.65536 -0.40700
O 	O 	0.14395 0.65543 0.14939 -0.40600
O 	O 	0.14395 0.85061 0.50604 -0.40700
O 	O 	0.14395 0.49396 0.34457 -0.40700
O 	O 	0.35605 0.65543 0.14939 -0.40700
O 	O 	0.35605 0.85061 0.50604 -0.40700
O 	O 	0.35605 0.49396 0.34457 -0.40700
O 	O 	0.85605 0.14939 0.65543 -0.40600
O 	O 	0.85605 0.50604 0.85061 -0.40700
O 	O 	0.85605 0.34457 0.49396 -0.40700
O 	O 	0.64395 0.14939 0.65543 -0.40700
O 	O 	0.64395 0.50604 0.85061 -0.40700
O 	O 	0.64395 0.34457 0.49396 -0.40700
O 	O 	0.25000 0.82794 0.17222 -0.22700
O 	O 	0.25000 0.82778 0.65571 -0.22700
O 	O 	0.25000 0.34429 0.17206 -0.22700
O 	O 	0.75000 0.17222 0.82794 -0.22700
O 	O 	0.75000 0.65571 0.82777 -0.22700
O 	O 	0.75000 0.17206 0.34429 -0.22700
