data_crystal

_cell_length_a 11.74370
_cell_length_b 13.01010
_cell_length_c 18.92510
_cell_angle_alpha 90.00000
_cell_angle_beta  90.00000
_cell_angle_gamma 112.31600

_symmetry_space_group_name_	'P 1'
_symmetry_space_group_name_H-M	'P 1'

loop_
_symmetry_equiv_pos_as_xyz
  x,y,z

loop_
_atom_site_label
_atom_site_type_symbol
_atom_site_fract_x
_atom_site_fract_y
_atom_site_fract_z
_atom_site_charge
Zn	Zn	0.17610 0.65079 0.62815 1.22100
Zn	Zn	0.66120 0.62255 0.58563 1.19600
Zn	Zn	0.55602 0.87889 0.83179 1.20400
Zn	Zn	0.32390 0.84921 0.12815 1.22200
Zn	Zn	0.83880 0.87745 0.08563 1.19500
Zn	Zn	0.94398 0.62111 0.33179 1.20400
Zn	Zn	0.82390 0.34921 0.37185 1.22200
Zn	Zn	0.33880 0.37745 0.41437 1.19700
Zn	Zn	0.44398 0.12111 0.16821 1.20400
Zn	Zn	0.67610 0.15079 0.87185 1.22200
Zn	Zn	0.16120 0.12255 0.91437 1.19500
Zn	Zn	0.05602 0.37889 0.66821 1.20400
H 	H 	0.16070 0.62170 0.45210 -0.03000
H 	H 	0.23680 0.53390 0.70540 0.19300
H 	H 	0.12180 0.54790 0.73640 0.19600
H 	H 	0.69750 0.72880 0.75020 -0.01200
H 	H 	0.33930 0.87830 0.95210 -0.03000
H 	H 	0.26320 0.96610 0.20540 0.19400
H 	H 	0.37820 0.95210 0.23640 0.19700
H 	H 	0.80250 0.77120 0.25020 -0.01200
H 	H 	0.83930 0.37830 0.54790 -0.03000
H 	H 	0.76320 0.46610 0.29460 0.19300
H 	H 	0.87820 0.45210 0.26360 0.19600
H 	H 	0.30250 0.27120 0.24980 -0.01200
H 	H 	0.66070 0.12170 0.04790 -0.03000
H 	H 	0.73680 0.03390 0.79460 0.19400
H 	H 	0.62180 0.04790 0.76360 0.19700
H 	H 	0.19750 0.22880 0.74980 -0.01200
C 	C 	0.09260 0.63130 0.47150 0.12100
C 	C 	0.42360 0.65330 0.58200 0.33300
C 	C 	0.62740 0.72860 0.72730 0.11100
C 	C 	0.45910 0.75310 0.70560 -0.06900
C 	C 	0.36680 0.80320 0.72240 0.31300
C 	C 	0.48320 0.69690 0.65000 -0.07300
C 	C 	0.91790 0.64830 0.48090 -0.06500
C 	C 	0.92920 0.66470 0.62030 0.33600
C 	C 	0.96570 0.65100 0.54790 -0.07800
C 	C 	0.80510 0.66030 0.45080 0.31900
C 	C 	0.40740 0.86870 0.97150 0.11800
C 	C 	0.07640 0.84670 0.08200 0.33100
C 	C 	0.87260 0.77140 0.22730 0.11000
C 	C 	0.04090 0.74690 0.20560 -0.06700
C 	C 	0.13320 0.69680 0.22240 0.31200
C 	C 	0.01680 0.80310 0.15000 -0.06800
C 	C 	0.58210 0.85170 0.98090 -0.06400
C 	C 	0.57080 0.83530 0.12030 0.33600
C 	C 	0.53430 0.84900 0.04790 -0.07800
C 	C 	0.69490 0.83970 0.95080 0.31900
C 	C 	0.90740 0.36870 0.52850 0.12100
C 	C 	0.57640 0.34670 0.41800 0.33300
C 	C 	0.37260 0.27140 0.27270 0.11100
C 	C 	0.54090 0.24690 0.29440 -0.06900
C 	C 	0.63320 0.19680 0.27760 0.31300
C 	C 	0.51680 0.30310 0.35000 -0.07300
C 	C 	0.08210 0.35170 0.51910 -0.06500
C 	C 	0.07080 0.33530 0.37970 0.33600
C 	C 	0.03430 0.34900 0.45210 -0.07800
C 	C 	0.19490 0.33970 0.54920 0.31900
C 	C 	0.59260 0.13130 0.02850 0.11800
C 	C 	0.92360 0.15330 0.91800 0.33100
C 	C 	0.12740 0.22860 0.77270 0.11000
C 	C 	0.95910 0.25310 0.79440 -0.06700
C 	C 	0.86680 0.30320 0.77760 0.31200
C 	C 	0.98320 0.19690 0.85000 -0.06800
C 	C 	0.41790 0.14830 0.01910 -0.06400
C 	C 	0.42920 0.16470 0.87970 0.33600
C 	C 	0.46570 0.15100 0.95210 -0.07800
C 	C 	0.30510 0.16030 0.04920 0.31900
N 	N 	0.07810 0.64170 0.53970 -0.25100
N 	N 	0.59010 0.68300 0.66420 -0.25300
N 	N 	0.55230 0.77390 0.75370 -0.25400
N 	N 	0.99870 0.63580 0.43300 -0.26900
N 	N 	0.42190 0.85830 0.03970 -0.25000
N 	N 	0.90990 0.81700 0.16420 -0.25600
N 	N 	0.94770 0.72610 0.25370 -0.25700
N 	N 	0.50130 0.86420 0.93300 -0.26800
N 	N 	0.92190 0.35830 0.46030 -0.25100
N 	N 	0.40990 0.31700 0.33580 -0.25300
N 	N 	0.44770 0.22610 0.24630 -0.25400
N 	N 	0.00130 0.36420 0.56700 -0.26900
N 	N 	0.57810 0.14170 0.96030 -0.25000
N 	N 	0.09010 0.18300 0.83580 -0.25600
N 	N 	0.05230 0.27390 0.74630 -0.25700
N 	N 	0.49870 0.13580 0.06700 -0.26800
O 	O 	0.32000 0.65260 0.56620 -0.44600
O 	O 	0.48620 0.61840 0.54130 -0.41200
O 	O 	0.38540 0.86060 0.77770 -0.40900
O 	O 	0.27660 0.78950 0.68180 -0.42000
O 	O 	0.15580 0.53060 0.69310 -0.81600
O 	O 	0.00890 0.67360 0.66700 -0.38500
O 	O 	0.82670 0.66770 0.63520 -0.45000
O 	O 	0.72540 0.67390 0.49060 -0.44600
O 	O 	0.79740 0.65770 0.38430 -0.40700
O 	O 	0.18000 0.84740 0.06620 -0.44500
O 	O 	0.01380 0.88160 0.04130 -0.40800
O 	O 	0.11460 0.63940 0.27770 -0.40800
O 	O 	0.22340 0.71050 0.18180 -0.42000
O 	O 	0.34420 0.96940 0.19310 -0.81600
O 	O 	0.49110 0.82640 0.16700 -0.38500
O 	O 	0.67330 0.83230 0.13520 -0.45100
O 	O 	0.77460 0.82610 0.99060 -0.44600
O 	O 	0.70260 0.84230 0.88430 -0.40800
O 	O 	0.68000 0.34740 0.43380 -0.44600
O 	O 	0.51380 0.38160 0.45870 -0.41200
O 	O 	0.61460 0.13940 0.22230 -0.40900
O 	O 	0.72340 0.21050 0.31820 -0.42000
O 	O 	0.84420 0.46940 0.30690 -0.81600
O 	O 	0.99110 0.32640 0.33300 -0.38500
O 	O 	0.17330 0.33230 0.36480 -0.45000
O 	O 	0.27460 0.32610 0.50940 -0.44600
O 	O 	0.20260 0.34230 0.61570 -0.40700
O 	O 	0.82000 0.15260 0.93380 -0.44500
O 	O 	0.98620 0.11840 0.95870 -0.40800
O 	O 	0.88540 0.36060 0.72230 -0.40800
O 	O 	0.77660 0.28950 0.81820 -0.42000
O 	O 	0.65580 0.03060 0.80690 -0.81600
O 	O 	0.50890 0.17360 0.83300 -0.38500
O 	O 	0.32670 0.16770 0.86480 -0.45100
O 	O 	0.22540 0.17390 0.00940 -0.44600
O 	O 	0.29740 0.15770 0.11570 -0.40800
