data_crystal

_cell_length_a 11.41900
_cell_length_b 12.67000
_cell_length_c 14.75200
_cell_angle_alpha 90.00000
_cell_angle_beta  90.00000
_cell_angle_gamma 90.00000

_symmetry_space_group_name_	'P 1'
_symmetry_space_group_name_H-M	'P 1'

loop_
_symmetry_equiv_pos_as_xyz
  x,y,z

loop_
_atom_site_label
_atom_site_type_symbol
_atom_site_fract_x
_atom_site_fract_y
_atom_site_fract_z
_atom_site_charge
Zn	Zn	0.50000 0.50000 0.25000 1.18700
Zn	Zn	0.50000 0.50000 0.75000 1.18700
H 	H 	0.91080 0.65550 0.27480 0.08900
H 	H 	0.69800 0.77970 0.13610 0.06500
H 	H 	0.70970 0.65040 0.27640 -0.00900
H 	H 	0.83950 0.90910 0.13550 0.06300
H 	H 	0.08920 0.34450 0.27480 0.08800
H 	H 	0.30200 0.22030 0.13610 0.06400
H 	H 	0.29030 0.34960 0.27640 -0.00900
H 	H 	0.16050 0.09090 0.13550 0.06300
H 	H 	0.08920 0.65550 0.22520 0.08900
H 	H 	0.30200 0.77970 0.36390 0.06500
H 	H 	0.29030 0.65040 0.22360 -0.00900
H 	H 	0.16050 0.90910 0.36450 0.06200
H 	H 	0.91080 0.34450 0.22520 0.08900
H 	H 	0.69800 0.22030 0.36390 0.06500
H 	H 	0.70970 0.34960 0.22360 -0.00900
H 	H 	0.83950 0.09090 0.36450 0.06200
H 	H 	0.08920 0.34450 0.72520 0.08800
H 	H 	0.30200 0.22030 0.86390 0.06500
H 	H 	0.29030 0.34960 0.72360 -0.00900
H 	H 	0.16050 0.09090 0.86450 0.06400
H 	H 	0.91080 0.65550 0.72520 0.08800
H 	H 	0.69800 0.77970 0.86390 0.06500
H 	H 	0.70970 0.65040 0.72360 -0.00900
H 	H 	0.83950 0.90910 0.86450 0.06400
H 	H 	0.91080 0.34450 0.77480 0.08800
H 	H 	0.69800 0.22030 0.63610 0.06400
H 	H 	0.70970 0.34960 0.77640 -0.01000
H 	H 	0.83950 0.09090 0.63550 0.06200
H 	H 	0.08920 0.65550 0.77480 0.08800
H 	H 	0.30200 0.77970 0.63610 0.06400
H 	H 	0.29030 0.65040 0.77640 -0.01000
H 	H 	0.16050 0.90910 0.63550 0.06200
C 	C 	0.75080 0.58840 0.26510 0.08200
C 	C 	0.87190 0.59200 0.26500 -0.14000
C 	C 	0.53820 0.65150 0.08041 0.13300
C 	C 	0.72430 0.80740 0.08140 -0.08300
C 	C 	0.92060 0.09000 0.08040 0.09600
C 	C 	0.80740 0.88600 0.08100 -0.05200
C 	C 	0.24920 0.41160 0.26510 0.08200
C 	C 	0.12810 0.40800 0.26500 -0.14000
C 	C 	0.46180 0.34850 0.08041 0.13300
C 	C 	0.27570 0.19260 0.08140 -0.08300
C 	C 	0.07940 0.91000 0.08040 0.09600
C 	C 	0.19260 0.11400 0.08100 -0.05200
C 	C 	0.24920 0.58840 0.23490 0.08300
C 	C 	0.12810 0.59200 0.23500 -0.13900
C 	C 	0.46180 0.65150 0.41959 0.13300
C 	C 	0.27570 0.80740 0.41860 -0.08400
C 	C 	0.07940 0.09000 0.41960 0.09600
C 	C 	0.19260 0.88600 0.41900 -0.05000
C 	C 	0.75080 0.41160 0.23490 0.08300
C 	C 	0.87190 0.40800 0.23500 -0.13900
C 	C 	0.53820 0.34850 0.41959 0.13300
C 	C 	0.72430 0.19260 0.41860 -0.08400
C 	C 	0.92060 0.91000 0.41960 0.09600
C 	C 	0.80740 0.11400 0.41900 -0.05000
C 	C 	0.24920 0.41160 0.73490 0.08200
C 	C 	0.12810 0.40800 0.73500 -0.14000
C 	C 	0.46180 0.34850 0.91959 0.12400
C 	C 	0.27570 0.19260 0.91860 -0.09000
C 	C 	0.07940 0.91000 0.91960 0.08800
C 	C 	0.19260 0.11400 0.91900 -0.05800
C 	C 	0.75080 0.58840 0.73490 0.08200
C 	C 	0.87190 0.59200 0.73500 -0.14000
C 	C 	0.53820 0.65150 0.91959 0.12400
C 	C 	0.72430 0.80740 0.91860 -0.09000
C 	C 	0.92060 0.09000 0.91960 0.08800
C 	C 	0.80740 0.88600 0.91900 -0.05800
C 	C 	0.75080 0.41160 0.76510 0.08200
C 	C 	0.87190 0.40800 0.76500 -0.14000
C 	C 	0.53820 0.34850 0.58041 0.13300
C 	C 	0.72430 0.19260 0.58140 -0.08400
C 	C 	0.92060 0.91000 0.58040 0.09600
C 	C 	0.80740 0.11400 0.58100 -0.05000
C 	C 	0.24920 0.58840 0.76510 0.08200
C 	C 	0.12810 0.59200 0.76500 -0.14000
C 	C 	0.46180 0.65150 0.58041 0.13300
C 	C 	0.27570 0.80740 0.58140 -0.08400
C 	C 	0.07940 0.09000 0.58040 0.09600
C 	C 	0.19260 0.88600 0.58100 -0.05000
C 	C 	0.58500 0.69150 -0.00000 -0.14100
C 	C 	0.67830 0.76840 -0.00000 0.09100
C 	C 	0.93200 0.02360 -0.00000 -0.06400
C 	C 	0.84290 0.93150 -0.00000 0.05000
C 	C 	0.41500 0.30850 -0.00000 -0.14100
C 	C 	0.32170 0.23160 -0.00000 0.09100
C 	C 	0.06800 0.97640 -0.00000 -0.06400
C 	C 	0.15710 0.06850 -0.00000 0.05000
C 	C 	0.41500 0.69150 0.50000 -0.14900
C 	C 	0.32170 0.76840 0.50000 0.08600
C 	C 	0.06800 0.02360 0.50000 -0.06900
C 	C 	0.15710 0.93150 0.50000 0.04100
C 	C 	0.58500 0.30850 0.50000 -0.14900
C 	C 	0.67830 0.23160 0.50000 0.08600
C 	C 	0.93200 0.97640 0.50000 -0.06900
C 	C 	0.84290 0.06850 0.50000 0.04100
C 	C 	0.93470 0.50000 0.25000 0.06300
C 	C 	0.06530 0.50000 0.25000 0.06300
C 	C 	0.06530 0.50000 0.75000 0.06300
C 	C 	0.93470 0.50000 0.75000 0.06300
N 	N 	0.89900 0.13570 0.14480 -0.12900
N 	N 	0.50128 0.61970 0.14748 -0.27100
N 	N 	0.10100 0.86430 0.14480 -0.12900
N 	N 	0.49872 0.38030 0.14748 -0.27100
N 	N 	0.10100 0.13570 0.35520 -0.12900
N 	N 	0.49872 0.61970 0.35252 -0.27100
N 	N 	0.89900 0.86430 0.35520 -0.12900
N 	N 	0.50128 0.38030 0.35252 -0.27100
N 	N 	0.10100 0.86430 0.85520 -0.12800
N 	N 	0.49872 0.38030 0.85252 -0.27000
N 	N 	0.89900 0.13570 0.85520 -0.12800
N 	N 	0.50128 0.61970 0.85252 -0.27000
N 	N 	0.89900 0.86430 0.64480 -0.12900
N 	N 	0.50128 0.38030 0.64748 -0.27200
N 	N 	0.10100 0.13570 0.64480 -0.12900
N 	N 	0.49872 0.61970 0.64748 -0.27200
N 	N 	0.68970 0.50000 0.25000 -0.25100
N 	N 	0.31030 0.50000 0.25000 -0.25100
N 	N 	0.31030 0.50000 0.75000 -0.25200
N 	N 	0.68970 0.50000 0.75000 -0.25200
