data_crystal

_cell_length_a 11.37490
_cell_length_b 12.72390
_cell_length_c 14.80100
_cell_angle_alpha 90.00000
_cell_angle_beta  90.00000
_cell_angle_gamma 90.00000

_symmetry_space_group_name_	'P 1'
_symmetry_space_group_name_H-M	'P 1'

loop_
_symmetry_equiv_pos_as_xyz
  x,y,z

loop_
_atom_site_label
_atom_site_type_symbol
_atom_site_fract_x
_atom_site_fract_y
_atom_site_fract_z
_atom_site_charge
Zn	Zn	0.00000 0.00000 0.25000 1.13500
Zn	Zn	0.00000 0.00000 0.75000 1.13500
H 	H 	0.58870 0.84360 0.22680 0.07000
H 	H 	0.79240 0.84800 0.22830 0.01100
H 	H 	0.19610 0.71750 0.13670 0.05200
H 	H 	0.33070 0.58260 0.13610 0.05800
H 	H 	0.41130 0.15640 0.22680 0.07600
H 	H 	0.20760 0.15200 0.22830 -0.02200
H 	H 	0.80390 0.28250 0.13670 0.07100
H 	H 	0.66930 0.41740 0.13610 0.06400
H 	H 	0.41130 0.84360 0.27320 0.07000
H 	H 	0.20760 0.84800 0.27170 -0.03200
H 	H 	0.80390 0.71750 0.36330 0.07400
H 	H 	0.66930 0.58260 0.36390 0.06300
H 	H 	0.58870 0.15640 0.27320 0.07500
H 	H 	0.79240 0.15200 0.27170 0.01900
H 	H 	0.19610 0.28250 0.36330 0.04800
H 	H 	0.33070 0.41740 0.36390 0.05700
H 	H 	0.41130 0.15640 0.77320 0.07500
H 	H 	0.20760 0.15200 0.77170 -0.02300
H 	H 	0.80390 0.28250 0.86330 0.07200
H 	H 	0.66930 0.41740 0.86390 0.06500
H 	H 	0.58870 0.84360 0.77320 0.06800
H 	H 	0.79240 0.84800 0.77170 0.00900
H 	H 	0.19610 0.71750 0.86330 0.05200
H 	H 	0.33070 0.58260 0.86390 0.05800
H 	H 	0.58870 0.15640 0.72680 0.07500
H 	H 	0.79240 0.15200 0.72830 0.01900
H 	H 	0.19610 0.28250 0.63670 0.04800
H 	H 	0.33070 0.41740 0.63610 0.05600
H 	H 	0.41130 0.84360 0.72680 0.07000
H 	H 	0.20760 0.84800 0.72830 -0.03200
H 	H 	0.80390 0.71750 0.63670 0.07400
H 	H 	0.66930 0.58260 0.63610 0.06300
C 	C 	0.03920 0.84939 0.08053 0.11000
C 	C 	0.41810 0.41120 0.08060 0.08700
C 	C 	0.62840 0.90840 0.23648 -0.05100
C 	C 	0.75030 0.91160 0.23727 0.10900
C 	C 	0.22190 0.68920 0.08070 -0.07800
C 	C 	0.30230 0.60970 0.08040 -0.05600
C 	C 	0.96080 0.15061 0.08053 0.16000
C 	C 	0.58190 0.58880 0.08060 0.10700
C 	C 	0.37160 0.09160 0.23648 -0.11900
C 	C 	0.24970 0.08840 0.23727 0.05600
C 	C 	0.77810 0.31080 0.08070 -0.07600
C 	C 	0.69770 0.39030 0.08040 -0.04200
C 	C 	0.96080 0.84939 0.41947 0.18300
C 	C 	0.58190 0.41120 0.41940 0.10300
C 	C 	0.37160 0.90840 0.26352 -0.06600
C 	C 	0.24970 0.91160 0.26273 0.11900
C 	C 	0.77810 0.68920 0.41930 -0.07700
C 	C 	0.69770 0.60970 0.41960 -0.03700
C 	C 	0.03920 0.15061 0.41947 0.08400
C 	C 	0.41810 0.58880 0.41940 0.09100
C 	C 	0.62840 0.09160 0.26352 -0.10300
C 	C 	0.75030 0.08840 0.26273 0.05500
C 	C 	0.22190 0.31080 0.41930 -0.07800
C 	C 	0.30230 0.39030 0.41960 -0.05800
C 	C 	0.96080 0.15061 0.91947 0.15200
C 	C 	0.58190 0.58880 0.91940 0.09900
C 	C 	0.37160 0.09160 0.76352 -0.12000
C 	C 	0.24970 0.08840 0.76273 0.05500
C 	C 	0.77810 0.31080 0.91930 -0.08300
C 	C 	0.69770 0.39030 0.91960 -0.04800
C 	C 	0.03920 0.84939 0.91947 0.10200
C 	C 	0.41810 0.41120 0.91940 0.07900
C 	C 	0.62840 0.90840 0.76352 -0.05100
C 	C 	0.75030 0.91160 0.76273 0.10800
C 	C 	0.22190 0.68920 0.91930 -0.08400
C 	C 	0.30230 0.60970 0.91960 -0.06300
C 	C 	0.03920 0.15061 0.58053 0.08400
C 	C 	0.41810 0.58880 0.58060 0.09100
C 	C 	0.62840 0.09160 0.73648 -0.10400
C 	C 	0.75030 0.08840 0.73727 0.05500
C 	C 	0.22190 0.31080 0.58070 -0.07800
C 	C 	0.30230 0.39030 0.58040 -0.05800
C 	C 	0.96080 0.84939 0.58053 0.18300
C 	C 	0.58190 0.41120 0.58060 0.10300
C 	C 	0.37160 0.90840 0.73648 -0.06700
C 	C 	0.24970 0.91160 0.73727 0.11900
C 	C 	0.77810 0.68920 0.58070 -0.07700
C 	C 	0.69770 0.60970 0.58040 -0.03700
C 	C 	0.56500 0.00000 0.25000 -0.00500
C 	C 	0.43500 0.00000 0.25000 0.00200
C 	C 	0.43500 0.00000 0.75000 0.00100
C 	C 	0.56500 0.00000 0.75000 -0.00600
C 	C 	0.17640 0.72990 -0.00000 0.07500
C 	C 	0.43300 0.47940 -0.00000 -0.06100
C 	C 	0.34310 0.56780 -0.00000 0.04400
C 	C 	0.08520 0.80970 -0.00000 -0.14100
C 	C 	0.82360 0.27010 -0.00000 0.09700
C 	C 	0.56700 0.52060 -0.00000 -0.06200
C 	C 	0.65690 0.43220 -0.00000 0.05000
C 	C 	0.91480 0.19030 -0.00000 -0.13400
C 	C 	0.82360 0.72990 0.50000 0.09900
C 	C 	0.56700 0.47940 0.50000 -0.06500
C 	C 	0.65690 0.56780 0.50000 0.04200
C 	C 	0.91480 0.80970 0.50000 -0.14000
C 	C 	0.17640 0.27010 0.50000 0.06200
C 	C 	0.43300 0.52060 0.50000 -0.06700
C 	C 	0.34310 0.43220 0.50000 0.03700
C 	C 	0.08520 0.19030 0.50000 -0.15100
N 	N 	0.40400 0.36170 0.14280 -0.13500
N 	N 	0.00190 0.88100 0.14706 -0.29000
N 	N 	0.59600 0.63830 0.14280 -0.12300
N 	N 	0.99810 0.11900 0.14706 -0.22700
N 	N 	0.59600 0.36170 0.35720 -0.12600
N 	N 	0.99810 0.88100 0.35294 -0.21100
N 	N 	0.40400 0.63830 0.35720 -0.13200
N 	N 	0.00190 0.11900 0.35294 -0.31400
N 	N 	0.59600 0.63830 0.85720 -0.12200
N 	N 	0.99810 0.11900 0.85294 -0.22600
N 	N 	0.40400 0.36170 0.85720 -0.13400
N 	N 	0.00190 0.88100 0.85294 -0.28900
N 	N 	0.40400 0.63830 0.64280 -0.13300
N 	N 	0.00190 0.11900 0.64706 -0.31400
N 	N 	0.59600 0.36170 0.64280 -0.12600
N 	N 	0.99810 0.88100 0.64706 -0.21100
N 	N 	0.81140 0.00000 0.25000 -0.25700
N 	N 	0.18860 0.00000 0.25000 -0.30300
N 	N 	0.18860 0.00000 0.75000 -0.30300
N 	N 	0.81140 0.00000 0.75000 -0.25700
