data_crystal

_cell_length_a 14.95960
_cell_length_b 16.83740
_cell_length_c 16.83740
_cell_angle_alpha 98.91840
_cell_angle_beta  94.39060
_cell_angle_gamma 94.39060

_symmetry_space_group_name_	'P 1'
_symmetry_space_group_name_H-M	'P 1'

loop_
_symmetry_equiv_pos_as_xyz
  x,y,z

loop_
_atom_site_label
_atom_site_type_symbol
_atom_site_fract_x
_atom_site_fract_y
_atom_site_fract_z
_atom_site_charge
Ca	Ca	0.64061 0.89676 0.74480 1.48400
Ca	Ca	0.58986 0.65285 0.67541 1.50900
Ca	Ca	0.18194 0.37211 0.87117 1.48200
Ca	Ca	0.85939 0.25520 0.10324 1.48400
Ca	Ca	0.91014 0.32459 0.34715 1.50900
Ca	Ca	0.31806 0.12883 0.62789 1.48200
Ca	Ca	0.35939 0.10324 0.25520 1.48400
Ca	Ca	0.41014 0.34715 0.32459 1.50900
Ca	Ca	0.81806 0.62789 0.12883 1.48200
Ca	Ca	0.14061 0.74480 0.89676 1.48400
Ca	Ca	0.08986 0.67541 0.65285 1.50900
Ca	Ca	0.68194 0.87117 0.37211 1.48200
H 	H 	0.52380 0.30190 0.73110 0.04100
H 	H 	0.72220 0.47220 0.71600 0.04200
H 	H 	0.76560 0.30150 0.85350 0.05400
H 	H 	0.55840 0.12220 0.92840 0.11000
H 	H 	0.65510 0.12030 0.97030 0.09000
H 	H 	0.41940 0.49570 0.60150 0.09900
H 	H 	0.35040 0.42170 0.60450 0.10500
H 	H 	0.97170 0.55150 0.85590 0.06400
H 	H 	0.99660 0.55760 0.76840 0.06300
H 	H 	0.60770 0.65550 0.10810 -0.01600
H 	H 	0.46590 0.45560 0.14420 0.05200
H 	H 	0.36260 0.59540 0.99340 0.03500
H 	H 	0.42180 0.79400 0.86340 0.11500
H 	H 	0.51180 0.82160 0.91820 0.12400
H 	H 	0.75840 0.48730 0.26350 0.11600
H 	H 	0.69880 0.42230 0.29770 0.10400
H 	H 	0.16570 0.39100 0.10220 0.06800
H 	H 	0.22220 0.32090 0.06730 0.06000
H 	H 	0.66750 0.22920 0.92700 0.10100
H 	H 	0.49990 0.36480 0.59240 0.14900
H 	H 	0.85560 0.51180 0.76160 0.10200
H 	H 	0.42410 0.67460 0.91340 0.14000
H 	H 	0.59040 0.46050 0.23950 0.10800
H 	H 	0.29320 0.46090 0.15570 0.11800
H 	H 	0.97620 0.26890 0.69810 0.04100
H 	H 	0.77780 0.28400 0.52780 0.04200
H 	H 	0.73440 0.14650 0.69850 0.05400
H 	H 	0.94160 0.07160 0.87780 0.11200
H 	H 	0.84490 0.02970 0.87970 0.09100
H 	H 	0.08060 0.39850 0.50430 0.10000
H 	H 	0.14960 0.39550 0.57830 0.10500
H 	H 	0.52830 0.14410 0.44850 0.06400
H 	H 	0.50340 0.23160 0.44240 0.06300
H 	H 	0.89230 0.89190 0.34450 -0.01400
H 	H 	0.03410 0.85580 0.54440 0.05400
H 	H 	0.13740 0.00660 0.40460 0.04100
H 	H 	0.07820 0.13660 0.20600 0.11200
H 	H 	0.98820 0.08180 0.17840 0.11800
H 	H 	0.74160 0.73650 0.51270 0.11600
H 	H 	0.80120 0.70230 0.57770 0.10400
H 	H 	0.33430 0.89780 0.60900 0.06700
H 	H 	0.27780 0.93270 0.67910 0.05900
H 	H 	0.83250 0.07300 0.77080 0.10100
H 	H 	0.00010 0.40760 0.63520 0.14900
H 	H 	0.64440 0.23840 0.48820 0.10200
H 	H 	0.07590 0.08660 0.32540 0.14000
H 	H 	0.90960 0.76050 0.53950 0.10800
H 	H 	0.20680 0.84430 0.53910 0.11800
H 	H 	0.47620 0.69810 0.26890 0.04100
H 	H 	0.27780 0.52780 0.28400 0.04200
H 	H 	0.23440 0.69850 0.14650 0.05400
H 	H 	0.44160 0.87780 0.07160 0.11000
H 	H 	0.34490 0.87970 0.02970 0.09000
H 	H 	0.58060 0.50430 0.39850 0.09900
H 	H 	0.64960 0.57830 0.39550 0.10500
H 	H 	0.02830 0.44850 0.14410 0.06400
H 	H 	0.00340 0.44240 0.23160 0.06300
H 	H 	0.39230 0.34450 0.89190 -0.01600
H 	H 	0.53410 0.54440 0.85580 0.05200
H 	H 	0.63740 0.40460 0.00660 0.03500
H 	H 	0.57820 0.20600 0.13660 0.11500
H 	H 	0.48820 0.17840 0.08180 0.12400
H 	H 	0.24160 0.51270 0.73650 0.11600
H 	H 	0.30120 0.57770 0.70230 0.10400
H 	H 	0.83430 0.60900 0.89780 0.06800
H 	H 	0.77780 0.67910 0.93270 0.06000
H 	H 	0.33250 0.77080 0.07300 0.10100
H 	H 	0.50010 0.63520 0.40760 0.14900
H 	H 	0.14440 0.48820 0.23840 0.10200
H 	H 	0.57590 0.32540 0.08660 0.14000
H 	H 	0.40960 0.53950 0.76050 0.10800
H 	H 	0.70680 0.53910 0.84430 0.11800
H 	H 	0.02380 0.73110 0.30190 0.04100
H 	H 	0.22220 0.71600 0.47220 0.04200
H 	H 	0.26560 0.85350 0.30150 0.05400
H 	H 	0.05840 0.92840 0.12220 0.11200
H 	H 	0.15510 0.97030 0.12030 0.09100
H 	H 	0.91940 0.60150 0.49570 0.10000
H 	H 	0.85040 0.60450 0.42170 0.10500
H 	H 	0.47170 0.85590 0.55150 0.06400
H 	H 	0.49660 0.76840 0.55760 0.06300
H 	H 	0.10770 0.10810 0.65550 -0.01400
H 	H 	0.96590 0.14420 0.45560 0.05400
H 	H 	0.86260 0.99340 0.59540 0.04100
H 	H 	0.92180 0.86340 0.79400 0.11200
H 	H 	0.01180 0.91820 0.82160 0.11800
H 	H 	0.25840 0.26350 0.48730 0.11600
H 	H 	0.19880 0.29770 0.42230 0.10400
H 	H 	0.66570 0.10220 0.39100 0.06700
H 	H 	0.72220 0.06730 0.32090 0.05900
H 	H 	0.16750 0.92700 0.22920 0.10100
H 	H 	0.99990 0.59240 0.36480 0.14900
H 	H 	0.35560 0.76160 0.51180 0.10200
H 	H 	0.92410 0.91340 0.67460 0.14000
H 	H 	0.09040 0.23950 0.46050 0.10800
H 	H 	0.79320 0.15570 0.46090 0.11800
C 	C 	0.63902 0.28988 0.79800 -0.05600
C 	C 	0.58214 0.32520 0.74638 0.00700
C 	C 	0.61182 0.39460 0.71768 -0.07200
C 	C 	0.70125 0.42680 0.73652 -0.00700
C 	C 	0.75879 0.39070 0.78610 -0.05300
C 	C 	0.72751 0.32376 0.81832 -0.01100
C 	C 	0.59982 0.21941 0.83185 0.21900
C 	C 	0.62120 0.11917 0.91869 -0.22100
C 	C 	0.63090 0.03964 0.86530 0.36000
C 	C 	0.54868 0.44172 0.67430 0.27400
C 	C 	0.40850 0.43757 0.58703 -0.22200
C 	C 	0.40480 0.41521 0.49543 0.37000
C 	C 	0.85395 0.42543 0.81437 0.20900
C 	C 	0.97990 0.52003 0.80415 -0.19600
C 	C 	0.05620 0.46876 0.81528 0.35000
C 	C 	0.48853 0.63556 0.04256 -0.08500
C 	C 	0.55618 0.61973 0.09661 0.04400
C 	C 	0.55007 0.55288 0.13414 -0.10100
C 	C 	0.47120 0.50118 0.11948 0.01600
C 	C 	0.40058 0.51780 0.06806 -0.08200
C 	C 	0.40948 0.58482 0.02876 0.01800
C 	C 	0.50973 0.70365 0.99759 0.22400
C 	C 	0.47520 0.77501 0.88803 -0.28000
C 	C 	0.52759 0.73475 0.82251 0.42400
C 	C 	0.63296 0.53547 0.18271 0.26300
C 	C 	0.71499 0.44049 0.24845 -0.26800
C 	C 	0.75917 0.37391 0.19839 0.41300
C 	C 	0.31517 0.46121 0.05267 0.27000
C 	C 	0.22040 0.36508 0.11146 -0.22300
C 	C 	0.21892 0.33206 0.18980 0.38100
C 	C 	0.86098 0.20200 0.71012 -0.05600
C 	C 	0.91786 0.25362 0.67480 0.00700
C 	C 	0.88818 0.28232 0.60540 -0.07200
C 	C 	0.79875 0.26348 0.57320 -0.00700
C 	C 	0.74121 0.21390 0.60930 -0.05300
C 	C 	0.77249 0.18168 0.67624 -0.01100
C 	C 	0.90018 0.16815 0.78059 0.21900
C 	C 	0.87880 0.08131 0.88083 -0.22400
C 	C 	0.86910 0.13470 0.96036 0.36500
C 	C 	0.95132 0.32570 0.55828 0.27400
C 	C 	0.09150 0.41297 0.56243 -0.22200
C 	C 	0.09520 0.50457 0.58479 0.37100
C 	C 	0.64605 0.18563 0.57457 0.20900
C 	C 	0.52010 0.19585 0.47997 -0.19900
C 	C 	0.44380 0.18472 0.53124 0.35200
C 	C 	0.01147 0.95744 0.36444 -0.07900
C 	C 	0.94382 0.90339 0.38027 0.04000
C 	C 	0.94993 0.86586 0.44712 -0.09600
C 	C 	0.02880 0.88052 0.49882 0.01000
C 	C 	0.09942 0.93194 0.48220 -0.07600
C 	C 	0.09052 0.97124 0.41518 0.00800
C 	C 	0.99027 0.00241 0.29635 0.21500
C 	C 	0.02480 0.11197 0.22499 -0.26800
C 	C 	0.97241 0.17749 0.26525 0.41800
C 	C 	0.86704 0.81729 0.46453 0.26100
C 	C 	0.78501 0.75155 0.55951 -0.26800
C 	C 	0.74083 0.80161 0.62609 0.41300
C 	C 	0.18483 0.94733 0.53879 0.26500
C 	C 	0.27960 0.88854 0.63492 -0.22300
C 	C 	0.28108 0.81020 0.66794 0.38100
C 	C 	0.36098 0.71012 0.20200 -0.05600
C 	C 	0.41786 0.67480 0.25362 0.00700
C 	C 	0.38818 0.60540 0.28232 -0.07200
C 	C 	0.29875 0.57320 0.26348 -0.00700
C 	C 	0.24121 0.60930 0.21390 -0.05300
C 	C 	0.27249 0.67624 0.18168 -0.01100
C 	C 	0.40018 0.78059 0.16815 0.21900
C 	C 	0.37880 0.88083 0.08131 -0.22100
C 	C 	0.36910 0.96036 0.13470 0.36000
C 	C 	0.45132 0.55828 0.32570 0.27400
C 	C 	0.59150 0.56243 0.41297 -0.22200
C 	C 	0.59520 0.58479 0.50457 0.37000
C 	C 	0.14605 0.57457 0.18563 0.20900
C 	C 	0.02010 0.47997 0.19585 -0.19600
C 	C 	0.94380 0.53124 0.18472 0.35000
C 	C 	0.51147 0.36444 0.95744 -0.08500
C 	C 	0.44382 0.38027 0.90339 0.04400
C 	C 	0.44993 0.44712 0.86586 -0.10100
C 	C 	0.52880 0.49882 0.88052 0.01600
C 	C 	0.59942 0.48220 0.93194 -0.08200
C 	C 	0.59052 0.41518 0.97124 0.01800
C 	C 	0.49027 0.29635 0.00241 0.22400
C 	C 	0.52480 0.22499 0.11197 -0.28000
C 	C 	0.47241 0.26525 0.17749 0.42400
C 	C 	0.36704 0.46453 0.81729 0.26300
C 	C 	0.28501 0.55951 0.75155 -0.26800
C 	C 	0.24083 0.62609 0.80161 0.41300
C 	C 	0.68483 0.53879 0.94733 0.27000
C 	C 	0.77960 0.63492 0.88854 -0.22300
C 	C 	0.78108 0.66794 0.81020 0.38100
C 	C 	0.13902 0.79800 0.28988 -0.05600
C 	C 	0.08214 0.74638 0.32520 0.00700
C 	C 	0.11182 0.71768 0.39460 -0.07200
C 	C 	0.20125 0.73652 0.42680 -0.00700
C 	C 	0.25879 0.78610 0.39070 -0.05300
C 	C 	0.22751 0.81832 0.32376 -0.01100
C 	C 	0.09982 0.83185 0.21941 0.21900
C 	C 	0.12120 0.91869 0.11917 -0.22400
C 	C 	0.13090 0.86530 0.03964 0.36500
C 	C 	0.04868 0.67430 0.44172 0.27400
C 	C 	0.90850 0.58703 0.43757 -0.22200
C 	C 	0.90480 0.49543 0.41521 0.37100
C 	C 	0.35395 0.81437 0.42543 0.20900
C 	C 	0.47990 0.80415 0.52003 -0.19900
C 	C 	0.55620 0.81528 0.46876 0.35200
C 	C 	0.98853 0.04256 0.63556 -0.07900
C 	C 	0.05618 0.09661 0.61973 0.04000
C 	C 	0.05007 0.13414 0.55288 -0.09600
C 	C 	0.97120 0.11948 0.50118 0.01000
C 	C 	0.90058 0.06806 0.51780 -0.07600
C 	C 	0.90948 0.02876 0.58482 0.00800
C 	C 	0.00973 0.99759 0.70365 0.21500
C 	C 	0.97520 0.88803 0.77501 -0.26800
C 	C 	0.02759 0.82251 0.73475 0.41800
C 	C 	0.13296 0.18271 0.53547 0.26100
C 	C 	0.21499 0.24845 0.44049 -0.26800
C 	C 	0.25917 0.19839 0.37391 0.41300
C 	C 	0.81517 0.05267 0.46121 0.26500
C 	C 	0.72040 0.11146 0.36508 -0.22300
C 	C 	0.71892 0.18980 0.33206 0.38100
N 	N 	0.65182 0.18921 0.88501 -0.15800
N 	N 	0.47750 0.40014 0.62986 -0.19300
N 	N 	0.89439 0.47549 0.77139 -0.17000
N 	N 	0.44833 0.72135 0.94331 -0.17600
N 	N 	0.63507 0.46437 0.20701 -0.17300
N 	N 	0.29713 0.42241 0.11287 -0.19100
N 	N 	0.84818 0.11499 0.81079 -0.15700
N 	N 	0.02250 0.37014 0.59986 -0.19300
N 	N 	0.60561 0.22861 0.52451 -0.17000
N 	N 	0.05167 0.05669 0.27865 -0.17500
N 	N 	0.86493 0.79299 0.53563 -0.17200
N 	N 	0.20287 0.88713 0.57759 -0.19000
N 	N 	0.34818 0.81079 0.11499 -0.15800
N 	N 	0.52250 0.59986 0.37014 -0.19300
N 	N 	0.10561 0.52451 0.22861 -0.17000
N 	N 	0.55167 0.27865 0.05669 -0.17600
N 	N 	0.36493 0.53563 0.79299 -0.17300
N 	N 	0.70287 0.57759 0.88713 -0.19100
N 	N 	0.15182 0.88501 0.18921 -0.15700
N 	N 	0.97750 0.62986 0.40014 -0.19300
N 	N 	0.39439 0.77139 0.47549 -0.17000
N 	N 	0.94833 0.94331 0.72135 -0.17500
N 	N 	0.13507 0.20701 0.46437 -0.17200
N 	N 	0.79713 0.11287 0.42241 -0.19000
O 	O 	0.52032 0.19188 0.81180 -0.28000
O 	O 	0.67047 0.03937 0.80191 -0.44100
O 	O 	0.59890 0.97701 0.88651 -0.41600
O 	O 	0.56030 0.51578 0.68578 -0.41100
O 	O 	0.34044 0.43485 0.45473 -0.35800
O 	O 	0.46620 0.37835 0.46613 -0.43100
O 	O 	0.89157 0.40835 0.87667 -0.25900
O 	O 	0.06074 0.40366 0.76996 -0.41200
O 	O 	0.11608 0.49489 0.87173 -0.46200
O 	O 	0.58521 0.74165 0.00871 -0.26300
O 	O 	0.52637 0.65942 0.80934 -0.41400
O 	O 	0.56837 0.77893 0.78029 -0.59800
O 	O 	0.69825 0.58801 0.19785 -0.45900
O 	O 	0.83512 0.35728 0.22754 -0.58100
O 	O 	0.72234 0.33839 0.13287 -0.42800
O 	O 	0.26866 0.45139 0.98821 -0.43200
O 	O 	0.27554 0.36133 0.24665 -0.44000
O 	O 	0.15696 0.27738 0.19188 -0.33800
O 	O 	0.97968 0.18820 0.80812 -0.28000
O 	O 	0.82953 0.19809 0.96063 -0.44200
O 	O 	0.90110 0.11349 0.02299 -0.42100
O 	O 	0.93970 0.31422 0.48422 -0.41100
O 	O 	0.15956 0.54527 0.56515 -0.35800
O 	O 	0.03380 0.53387 0.62165 -0.43100
O 	O 	0.60843 0.12333 0.59165 -0.26000
O 	O 	0.43926 0.23004 0.59634 -0.41200
O 	O 	0.38392 0.12827 0.50511 -0.46200
O 	O 	0.91479 0.99129 0.25835 -0.25900
O 	O 	0.97363 0.19066 0.34058 -0.41300
O 	O 	0.93163 0.21971 0.22107 -0.59700
O 	O 	0.80175 0.80215 0.41199 -0.45900
O 	O 	0.66488 0.77246 0.64272 -0.58000
O 	O 	0.77766 0.86713 0.66161 -0.42700
O 	O 	0.23134 0.01179 0.54861 -0.42800
O 	O 	0.22446 0.75335 0.63867 -0.44000
O 	O 	0.34304 0.80812 0.72262 -0.33900
O 	O 	0.47968 0.80812 0.18820 -0.28000
O 	O 	0.32953 0.96063 0.19809 -0.44100
O 	O 	0.40110 0.02299 0.11349 -0.41600
O 	O 	0.43970 0.48422 0.31422 -0.41100
O 	O 	0.65956 0.56515 0.54527 -0.35800
O 	O 	0.53380 0.62165 0.53387 -0.43100
O 	O 	0.10843 0.59165 0.12333 -0.25900
O 	O 	0.93926 0.59634 0.23004 -0.41200
O 	O 	0.88392 0.50511 0.12827 -0.46200
O 	O 	0.41479 0.25835 0.99129 -0.26300
O 	O 	0.47363 0.34058 0.19066 -0.41400
O 	O 	0.43163 0.22107 0.21971 -0.59800
O 	O 	0.30175 0.41199 0.80215 -0.45900
O 	O 	0.16488 0.64272 0.77246 -0.58100
O 	O 	0.27766 0.66161 0.86713 -0.42800
O 	O 	0.73134 0.54861 0.01179 -0.43200
O 	O 	0.72446 0.63867 0.75335 -0.44000
O 	O 	0.84304 0.72262 0.80812 -0.33800
O 	O 	0.02032 0.81180 0.19188 -0.28000
O 	O 	0.17047 0.80191 0.03937 -0.44200
O 	O 	0.09890 0.88651 0.97701 -0.42100
O 	O 	0.06030 0.68578 0.51578 -0.41100
O 	O 	0.84044 0.45473 0.43485 -0.35800
O 	O 	0.96620 0.46613 0.37835 -0.43100
O 	O 	0.39157 0.87667 0.40835 -0.26000
O 	O 	0.56074 0.76996 0.40366 -0.41200
O 	O 	0.61608 0.87173 0.49489 -0.46200
O 	O 	0.08521 0.00871 0.74165 -0.25900
O 	O 	0.02637 0.80934 0.65942 -0.41300
O 	O 	0.06837 0.78029 0.77893 -0.59700
O 	O 	0.19825 0.19785 0.58801 -0.45900
O 	O 	0.33512 0.22754 0.35728 -0.58000
O 	O 	0.22234 0.13287 0.33839 -0.42700
O 	O 	0.76866 0.98821 0.45139 -0.42800
O 	O 	0.77554 0.24665 0.36133 -0.44000
O 	O 	0.65696 0.19188 0.27738 -0.33900
