data_crystal

_cell_length_a 7.18120
_cell_length_b 21.89300
_cell_length_c 21.89300
_cell_angle_alpha 90.00000
_cell_angle_beta  90.00000
_cell_angle_gamma 90.00000

_symmetry_space_group_name_	'P 1'
_symmetry_space_group_name_H-M	'P 1'

loop_
_symmetry_equiv_pos_as_xyz
  x,y,z

loop_
_atom_site_label
_atom_site_type_symbol
_atom_site_fract_x
_atom_site_fract_y
_atom_site_fract_z
_atom_site_charge
In	In	0.00000 0.50000 0.50000 1.97400
In	In	-0.00000 0.00000 -0.00000 1.87900
In	In	0.00000 -0.00000 0.50000 1.92700
In	In	-0.00000 0.50000 -0.00000 1.92700
In	In	0.50000 0.50000 0.50000 2.01700
In	In	0.50000 0.00000 -0.00000 1.92100
In	In	0.50000 -0.00000 0.50000 1.97000
In	In	0.50000 0.50000 -0.00000 1.97000
H 	H 	0.48850 0.30330 0.48360 0.03500
H 	H 	0.04120 0.35480 0.58550 0.07700
H 	H 	0.30560 0.30270 0.61730 0.02900
H 	H 	0.48850 0.19670 0.01640 0.03200
H 	H 	0.04120 0.14520 0.91450 0.07300
H 	H 	0.30560 0.19730 0.88270 0.03900
H 	H 	0.48850 0.01640 0.30330 0.03800
H 	H 	0.04120 0.91450 0.35480 0.07100
H 	H 	0.30560 0.88270 0.30270 0.04200
H 	H 	0.48850 0.48360 0.19670 0.02800
H 	H 	0.04120 0.58550 0.14520 0.07900
H 	H 	0.30560 0.61730 0.19730 0.02600
H 	H 	0.51150 0.69670 0.98360 0.06000
H 	H 	0.95880 0.64520 0.08550 0.07000
H 	H 	0.69440 0.69730 0.11730 0.04400
H 	H 	0.51150 0.80330 0.51640 0.07200
H 	H 	0.95880 0.85480 0.41450 0.06200
H 	H 	0.69440 0.80270 0.38270 0.06000
H 	H 	0.51150 0.98360 0.80330 0.07000
H 	H 	0.95880 0.08550 0.85480 0.06800
H 	H 	0.69440 0.11730 0.80270 0.04900
H 	H 	0.51150 0.51640 0.69670 0.06400
H 	H 	0.95880 0.41450 0.64520 0.06300
H 	H 	0.69440 0.38270 0.69730 0.05700
H 	H 	0.51150 0.69670 0.51640 0.06400
H 	H 	0.95880 0.64520 0.41450 0.06300
H 	H 	0.69440 0.69730 0.38270 0.05700
H 	H 	0.51150 0.80330 0.98360 0.07000
H 	H 	0.95880 0.85480 0.08550 0.06800
H 	H 	0.69440 0.80270 0.11730 0.04900
H 	H 	0.51150 0.98360 0.69670 0.06000
H 	H 	0.95880 0.08550 0.64520 0.07000
H 	H 	0.69440 0.11730 0.69730 0.04400
H 	H 	0.51150 0.51640 0.80330 0.07200
H 	H 	0.95880 0.41450 0.85480 0.06200
H 	H 	0.69440 0.38270 0.80270 0.06000
H 	H 	0.48850 0.30330 0.01640 0.03800
H 	H 	0.04120 0.35480 0.91450 0.07100
H 	H 	0.30560 0.30270 0.88270 0.04200
H 	H 	0.48850 0.19670 0.48360 0.02800
H 	H 	0.04120 0.14520 0.58550 0.07900
H 	H 	0.30560 0.19730 0.61730 0.02600
H 	H 	0.48850 0.01640 0.19670 0.03200
H 	H 	0.04120 0.91450 0.14520 0.07300
H 	H 	0.30560 0.88270 0.19730 0.03900
H 	H 	0.48850 0.48360 0.30330 0.03500
H 	H 	0.04120 0.58550 0.35480 0.07700
H 	H 	0.30560 0.61730 0.30270 0.02900
C 	C 	0.73940 0.38170 0.51240 0.52900
C 	C 	0.74450 0.31430 0.52140 -0.17100
C 	C 	0.59090 0.28210 0.49870 0.00600
C 	C 	0.89620 0.28350 0.54880 0.17500
C 	C 	0.04680 0.31270 0.57990 -0.24800
C 	C 	0.20330 0.28120 0.60250 -0.00500
C 	C 	0.73940 0.11830 0.98760 0.45400
C 	C 	0.74450 0.18570 0.97860 0.04900
C 	C 	0.59090 0.21790 0.00130 -0.20900
C 	C 	0.89620 0.21650 0.95120 0.15100
C 	C 	0.04680 0.18730 0.92010 -0.21100
C 	C 	0.20330 0.21880 0.89750 0.01000
C 	C 	0.73940 0.98760 0.38170 0.45400
C 	C 	0.74450 0.97860 0.31430 0.05600
C 	C 	0.59090 0.00130 0.28210 -0.21300
C 	C 	0.89620 0.95120 0.28350 0.14800
C 	C 	0.04680 0.92010 0.31270 -0.20700
C 	C 	0.20330 0.89750 0.28120 0.00500
C 	C 	0.73940 0.51240 0.11830 0.53000
C 	C 	0.74450 0.52140 0.18570 -0.18000
C 	C 	0.59090 0.49870 0.21790 0.01200
C 	C 	0.89620 0.54880 0.21650 0.18000
C 	C 	0.04680 0.57990 0.18730 -0.25300
C 	C 	0.20330 0.60250 0.21880 0.00100
C 	C 	0.26060 0.61830 0.01240 0.57600
C 	C 	0.25550 0.68570 0.02140 -0.34600
C 	C 	0.40910 0.71790 0.99870 0.21800
C 	C 	0.10380 0.71650 0.04880 -0.02000
C 	C 	0.95320 0.68730 0.07990 0.04300
C 	C 	0.79670 0.71880 0.10250 -0.05100
C 	C 	0.26060 0.88170 0.48760 0.49900
C 	C 	0.25550 0.81430 0.47860 -0.11200
C 	C 	0.40910 0.78210 0.50130 -0.00900
C 	C 	0.10380 0.78350 0.45120 -0.05200
C 	C 	0.95320 0.81270 0.42010 0.08700
C 	C 	0.79670 0.78120 0.39750 -0.04900
C 	C 	0.26060 0.01240 0.88170 0.56100
C 	C 	0.25550 0.02140 0.81430 -0.32600
C 	C 	0.40910 0.99870 0.78210 0.20000
C 	C 	0.10380 0.04880 0.78350 -0.02900
C 	C 	0.95320 0.07990 0.81270 0.05200
C 	C 	0.79670 0.10250 0.78120 -0.06000
C 	C 	0.26060 0.48760 0.61830 0.51200
C 	C 	0.25550 0.47860 0.68570 -0.12700
C 	C 	0.40910 0.50130 0.71790 0.00100
C 	C 	0.10380 0.45120 0.71650 -0.04600
C 	C 	0.95320 0.42010 0.68730 0.08100
C 	C 	0.79670 0.39750 0.71880 -0.04200
C 	C 	0.26060 0.61830 0.48760 0.51200
C 	C 	0.25550 0.68570 0.47860 -0.12700
C 	C 	0.40910 0.71790 0.50130 0.00100
C 	C 	0.10380 0.71650 0.45120 -0.04600
C 	C 	0.95320 0.68730 0.42010 0.08100
C 	C 	0.79670 0.71880 0.39750 -0.04200
C 	C 	0.26060 0.88170 0.01240 0.56100
C 	C 	0.25550 0.81430 0.02140 -0.32600
C 	C 	0.40910 0.78210 0.99870 0.20000
C 	C 	0.10380 0.78350 0.04880 -0.02900
C 	C 	0.95320 0.81270 0.07990 0.05200
C 	C 	0.79670 0.78120 0.10250 -0.06000
C 	C 	0.26060 0.01240 0.61830 0.57600
C 	C 	0.25550 0.02140 0.68570 -0.34600
C 	C 	0.40910 0.99870 0.71790 0.21800
C 	C 	0.10380 0.04880 0.71650 -0.02000
C 	C 	0.95320 0.07990 0.68730 0.04300
C 	C 	0.79670 0.10250 0.71880 -0.05100
C 	C 	0.26060 0.48760 0.88170 0.49900
C 	C 	0.25550 0.47860 0.81430 -0.11200
C 	C 	0.40910 0.50130 0.78210 -0.00900
C 	C 	0.10380 0.45120 0.78350 -0.05200
C 	C 	0.95320 0.42010 0.81270 0.08700
C 	C 	0.79670 0.39750 0.78120 -0.04900
C 	C 	0.73940 0.38170 0.98760 0.45400
C 	C 	0.74450 0.31430 0.97860 0.05600
C 	C 	0.59090 0.28210 0.00130 -0.21300
C 	C 	0.89620 0.28350 0.95120 0.14800
C 	C 	0.04680 0.31270 0.92010 -0.20700
C 	C 	0.20330 0.28120 0.89750 0.00500
C 	C 	0.73940 0.11830 0.51240 0.53000
C 	C 	0.74450 0.18570 0.52140 -0.18000
C 	C 	0.59090 0.21790 0.49870 0.01200
C 	C 	0.89620 0.21650 0.54880 0.18000
C 	C 	0.04680 0.18730 0.57990 -0.25300
C 	C 	0.20330 0.21880 0.60250 0.00100
C 	C 	0.73940 0.98760 0.11830 0.45400
C 	C 	0.74450 0.97860 0.18570 0.04900
C 	C 	0.59090 0.00130 0.21790 -0.20900
C 	C 	0.89620 0.95120 0.21650 0.15100
C 	C 	0.04680 0.92010 0.18730 -0.21100
C 	C 	0.20330 0.89750 0.21880 0.01000
C 	C 	0.73940 0.51240 0.38170 0.52900
C 	C 	0.74450 0.52140 0.31430 -0.17100
C 	C 	0.59090 0.49870 0.28210 0.00600
C 	C 	0.89620 0.54880 0.28350 0.17500
C 	C 	0.04680 0.57990 0.31270 -0.24800
C 	C 	0.20330 0.60250 0.28120 -0.00500
O 	O 	0.59460 0.40740 0.50770 -0.60000
O 	O 	0.89660 0.40740 0.50950 -0.51700
O 	O 	0.59460 0.09260 0.99230 -0.51600
O 	O 	0.89660 0.09260 0.99050 -0.45800
O 	O 	0.59460 0.99230 0.40740 -0.48000
O 	O 	0.89660 0.99050 0.40740 -0.42100
O 	O 	0.59460 0.50770 0.09260 -0.63800
O 	O 	0.89660 0.50950 0.09260 -0.55600
O 	O 	0.40540 0.59260 0.00770 -0.69100
O 	O 	0.10340 0.59260 0.00950 -0.69600
O 	O 	0.40540 0.90740 0.49230 -0.53500
O 	O 	0.10340 0.90740 0.49050 -0.56100
O 	O 	0.40540 0.00770 0.90740 -0.63000
O 	O 	0.10340 0.00950 0.90740 -0.63600
O 	O 	0.40540 0.49230 0.59260 -0.59200
O 	O 	0.10340 0.49050 0.59260 -0.61900
O 	O 	0.40540 0.59260 0.49230 -0.59200
O 	O 	0.10340 0.59260 0.49050 -0.61900
O 	O 	0.40540 0.90740 0.00770 -0.63000
O 	O 	0.10340 0.90740 0.00950 -0.63600
O 	O 	0.40540 0.00770 0.59260 -0.69100
O 	O 	0.10340 0.00950 0.59260 -0.69600
O 	O 	0.40540 0.49230 0.90740 -0.53500
O 	O 	0.10340 0.49050 0.90740 -0.56100
O 	O 	0.59460 0.40740 0.99230 -0.48000
O 	O 	0.89660 0.40740 0.99050 -0.42100
O 	O 	0.59460 0.09260 0.50770 -0.63800
O 	O 	0.89660 0.09260 0.50950 -0.55600
O 	O 	0.59460 0.99230 0.09260 -0.51600
O 	O 	0.89660 0.99050 0.09260 -0.45800
O 	O 	0.59460 0.50770 0.40740 -0.60000
O 	O 	0.89660 0.50950 0.40740 -0.51700
O 	O 	0.74550 0.53420 0.53420 -0.61800
O 	O 	0.74550 0.96580 0.96580 -0.39800
O 	O 	0.74550 0.96580 0.53420 -0.50400
O 	O 	0.74550 0.53420 0.96580 -0.50400
O 	O 	0.25450 0.46580 0.03420 -0.78300
O 	O 	0.25450 0.03420 0.46580 -0.78300
O 	O 	0.25450 0.03420 0.03420 -0.86900
O 	O 	0.25450 0.46580 0.46580 -0.69800
