data_crystal

_cell_length_a 14.65900
_cell_length_b 14.65900
_cell_length_c 19.27950
_cell_angle_alpha 112.34400
_cell_angle_beta  112.34400
_cell_angle_gamma 90.00000

_symmetry_space_group_name_	'P 1'
_symmetry_space_group_name_H-M	'P 1'

loop_
_symmetry_equiv_pos_as_xyz
  x,y,z

loop_
_atom_site_label
_atom_site_type_symbol
_atom_site_fract_x
_atom_site_fract_y
_atom_site_fract_z
_atom_site_charge
In	In	0.88711 0.63711 0.27422 1.99800
In	In	0.63711 0.88711 0.77422 1.99800
In	In	0.11289 0.36289 0.72578 1.99800
In	In	0.36289 0.11289 0.22578 1.99800
H 	H 	0.69250 0.67390 0.03940 0.06000
H 	H 	0.64680 0.71460 0.92740 0.05900
H 	H 	0.93790 0.90280 0.97340 0.09400
H 	H 	0.09530 0.95360 0.07440 0.05000
H 	H 	0.13960 0.91150 0.18640 0.07100
H 	H 	0.02510 0.81330 0.19360 0.07000
H 	H 	0.84690 0.36550 0.03940 0.06000
H 	H 	0.78060 0.21280 0.92740 0.05900
H 	H 	0.53550 0.07060 0.97340 0.09400
H 	H 	0.47910 0.12080 0.07440 0.05000
H 	H 	0.54680 0.27490 0.18640 0.07100
H 	H 	0.66850 0.38030 0.19360 0.07000
H 	H 	0.67390 0.84690 0.53940 0.06000
H 	H 	0.71460 0.78060 0.42740 0.05900
H 	H 	0.90280 0.53550 0.47340 0.09400
H 	H 	0.95360 0.47910 0.57440 0.04900
H 	H 	0.91150 0.54680 0.68640 0.07100
H 	H 	0.81330 0.66850 0.69360 0.07000
H 	H 	0.36550 0.69250 0.53940 0.06000
H 	H 	0.21280 0.64680 0.42740 0.05900
H 	H 	0.07060 0.93790 0.47340 0.09400
H 	H 	0.12080 0.09530 0.57440 0.04900
H 	H 	0.27490 0.13960 0.68640 0.07100
H 	H 	0.38030 0.02510 0.69360 0.07000
H 	H 	0.30750 0.32610 0.96060 0.06000
H 	H 	0.35320 0.28540 0.07260 0.05900
H 	H 	0.06210 0.09720 0.02660 0.09400
H 	H 	0.90470 0.04640 0.92560 0.05000
H 	H 	0.86040 0.08850 0.81360 0.07100
H 	H 	0.97490 0.18670 0.80640 0.07000
H 	H 	0.15310 0.63450 0.96060 0.06000
H 	H 	0.21940 0.78720 0.07260 0.05900
H 	H 	0.46450 0.92940 0.02660 0.09400
H 	H 	0.52090 0.87920 0.92560 0.05000
H 	H 	0.45320 0.72510 0.81360 0.07100
H 	H 	0.33150 0.61970 0.80640 0.07000
H 	H 	0.32610 0.15310 0.46060 0.06000
H 	H 	0.28540 0.21940 0.57260 0.05900
H 	H 	0.09720 0.46450 0.52660 0.09400
H 	H 	0.04640 0.52090 0.42560 0.04900
H 	H 	0.08850 0.45320 0.31360 0.07100
H 	H 	0.18670 0.33150 0.30640 0.07000
H 	H 	0.63450 0.30750 0.46060 0.06000
H 	H 	0.78720 0.35320 0.57260 0.05900
H 	H 	0.92940 0.06210 0.52660 0.09400
H 	H 	0.87920 0.90470 0.42560 0.04900
H 	H 	0.72510 0.86040 0.31360 0.07100
H 	H 	0.61970 0.97490 0.30640 0.07000
C 	C 	0.77847 0.79277 0.95954 -0.09600
C 	C 	0.87992 0.82532 0.01984 0.06400
C 	C 	0.90849 0.79719 0.08778 0.03400
C 	C 	0.83610 0.73960 0.09300 -0.06400
C 	C 	0.73957 0.71067 0.03454 -0.02300
C 	C 	0.71199 0.73639 0.96758 -0.00200
C 	C 	0.95404 0.88444 0.01728 -0.09600
C 	C 	0.04805 0.91495 0.07770 -0.00000
C 	C 	0.07523 0.88913 0.14486 -0.04100
C 	C 	0.00659 0.83089 0.14918 -0.05400
C 	C 	0.73584 0.82304 0.88788 0.36200
C 	C 	0.86042 0.70832 0.16304 0.31800
C 	C 	0.68107 0.16677 0.95954 -0.09600
C 	C 	0.63992 0.19452 0.01984 0.06400
C 	C 	0.67929 0.29059 0.08778 0.03300
C 	C 	0.75690 0.35340 0.09300 -0.06400
C 	C 	0.79497 0.32387 0.03454 -0.02300
C 	C 	0.75559 0.23119 0.96758 -0.00200
C 	C 	0.56324 0.13284 0.01728 -0.09600
C 	C 	0.52965 0.16275 0.07770 0.00100
C 	C 	0.56963 0.25573 0.14486 -0.04200
C 	C 	0.64259 0.31829 0.14918 -0.05300
C 	C 	0.65204 0.06484 0.88788 0.36200
C 	C 	0.80262 0.45472 0.16304 0.31800
C 	C 	0.79277 0.68107 0.45954 -0.09600
C 	C 	0.82532 0.63992 0.51984 0.06400
C 	C 	0.79719 0.67929 0.58778 0.03300
C 	C 	0.73960 0.75690 0.59300 -0.06400
C 	C 	0.71067 0.79497 0.53454 -0.02400
C 	C 	0.73639 0.75559 0.46758 -0.00200
C 	C 	0.88444 0.56324 0.51728 -0.09700
C 	C 	0.91495 0.52965 0.57770 0.00100
C 	C 	0.88913 0.56963 0.64486 -0.04200
C 	C 	0.83089 0.64259 0.64918 -0.05300
C 	C 	0.82304 0.65204 0.38788 0.36200
C 	C 	0.70832 0.80262 0.66304 0.31700
C 	C 	0.16677 0.77847 0.45954 -0.09600
C 	C 	0.19452 0.87992 0.51984 0.06400
C 	C 	0.29059 0.90849 0.58778 0.03300
C 	C 	0.35340 0.83610 0.59300 -0.06400
C 	C 	0.32387 0.73957 0.53454 -0.02400
C 	C 	0.23119 0.71199 0.46758 -0.00200
C 	C 	0.13284 0.95404 0.51728 -0.09700
C 	C 	0.16275 0.04805 0.57770 0.00100
C 	C 	0.25573 0.07523 0.64486 -0.04200
C 	C 	0.31829 0.00659 0.64918 -0.05300
C 	C 	0.06484 0.73584 0.38788 0.36200
C 	C 	0.45472 0.86042 0.66304 0.31700
C 	C 	0.22153 0.20723 0.04046 -0.09600
C 	C 	0.12008 0.17468 0.98016 0.06400
C 	C 	0.09151 0.20281 0.91222 0.03400
C 	C 	0.16390 0.26040 0.90700 -0.06400
C 	C 	0.26043 0.28933 0.96546 -0.02300
C 	C 	0.28801 0.26361 0.03242 -0.00200
C 	C 	0.04596 0.11556 0.98272 -0.09600
C 	C 	0.95195 0.08505 0.92230 -0.00000
C 	C 	0.92477 0.11087 0.85514 -0.04100
C 	C 	0.99341 0.16911 0.85082 -0.05400
C 	C 	0.26416 0.17696 0.11212 0.36200
C 	C 	0.13958 0.29168 0.83696 0.31800
C 	C 	0.31893 0.83323 0.04046 -0.09600
C 	C 	0.36008 0.80548 0.98016 0.06400
C 	C 	0.32071 0.70941 0.91222 0.03300
C 	C 	0.24310 0.64660 0.90700 -0.06400
C 	C 	0.20503 0.67613 0.96546 -0.02300
C 	C 	0.24441 0.76881 0.03242 -0.00200
C 	C 	0.43676 0.86716 0.98272 -0.09600
C 	C 	0.47035 0.83725 0.92230 0.00100
C 	C 	0.43037 0.74427 0.85514 -0.04200
C 	C 	0.35741 0.68171 0.85082 -0.05300
C 	C 	0.34796 0.93516 0.11212 0.36200
C 	C 	0.19738 0.54528 0.83696 0.31800
C 	C 	0.20723 0.31893 0.54046 -0.09600
C 	C 	0.17468 0.36008 0.48016 0.06400
C 	C 	0.20281 0.32071 0.41222 0.03300
C 	C 	0.26040 0.24310 0.40700 -0.06400
C 	C 	0.28933 0.20503 0.46546 -0.02400
C 	C 	0.26361 0.24441 0.53242 -0.00200
C 	C 	0.11556 0.43676 0.48272 -0.09700
C 	C 	0.08505 0.47035 0.42230 0.00100
C 	C 	0.11087 0.43037 0.35514 -0.04200
C 	C 	0.16911 0.35741 0.35082 -0.05300
C 	C 	0.17696 0.34796 0.61212 0.36200
C 	C 	0.29168 0.19738 0.33696 0.31700
C 	C 	0.83323 0.22153 0.54046 -0.09600
C 	C 	0.80548 0.12008 0.48016 0.06400
C 	C 	0.70941 0.09151 0.41222 0.03300
C 	C 	0.64660 0.16390 0.40700 -0.06400
C 	C 	0.67613 0.26043 0.46546 -0.02400
C 	C 	0.76881 0.28801 0.53242 -0.00200
C 	C 	0.86716 0.04596 0.48272 -0.09700
C 	C 	0.83725 0.95195 0.42230 0.00100
C 	C 	0.74427 0.92477 0.35514 -0.04200
C 	C 	0.68171 0.99341 0.35082 -0.05300
C 	C 	0.93516 0.26416 0.61212 0.36200
C 	C 	0.54528 0.13958 0.33696 0.31700
O 	O 	0.92456 0.65316 0.17372 -0.43400
O 	O 	0.78457 0.88057 0.87774 -0.44900
O 	O 	0.64616 0.79236 0.84112 -0.48100
O 	O 	0.81260 0.73280 0.20660 -0.43900
O 	O 	0.74916 0.52056 0.17372 -0.43400
O 	O 	0.59317 0.99717 0.87774 -0.44900
O 	O 	0.69496 0.04876 0.84112 -0.48100
O 	O 	0.89400 0.47380 0.20660 -0.43900
O 	O 	0.65316 0.74916 0.67372 -0.43400
O 	O 	0.88057 0.59317 0.37774 -0.44900
O 	O 	0.79236 0.69496 0.34112 -0.48100
O 	O 	0.73280 0.89400 0.70660 -0.43900
O 	O 	0.52056 0.92456 0.67372 -0.43400
O 	O 	0.99717 0.78457 0.37774 -0.44900
O 	O 	0.04876 0.64616 0.34112 -0.48100
O 	O 	0.47380 0.81260 0.70660 -0.43900
O 	O 	0.07544 0.34684 0.82628 -0.43400
O 	O 	0.21543 0.11943 0.12226 -0.44900
O 	O 	0.35384 0.20764 0.15888 -0.48100
O 	O 	0.18740 0.26720 0.79340 -0.43900
O 	O 	0.25084 0.47944 0.82628 -0.43400
O 	O 	0.40683 0.00283 0.12226 -0.44900
O 	O 	0.30504 0.95124 0.15888 -0.48100
O 	O 	0.10600 0.52620 0.79340 -0.43900
O 	O 	0.34684 0.25084 0.32628 -0.43400
O 	O 	0.11943 0.40683 0.62226 -0.44900
O 	O 	0.20764 0.30504 0.65888 -0.48100
O 	O 	0.26720 0.10600 0.29340 -0.43900
O 	O 	0.47944 0.07544 0.32628 -0.43400
O 	O 	0.00283 0.21543 0.62226 -0.44900
O 	O 	0.95124 0.35384 0.65888 -0.48100
O 	O 	0.52620 0.18740 0.29340 -0.43900
