data_crystal

_cell_length_a 10.02240
_cell_length_b 11.44880
_cell_length_c 15.17540
_cell_angle_alpha 90.86010
_cell_angle_beta  90.00000
_cell_angle_gamma 90.00000

_symmetry_space_group_name_	'P 1'
_symmetry_space_group_name_H-M	'P 1'

loop_
_symmetry_equiv_pos_as_xyz
  x,y,z

loop_
_atom_site_label
_atom_site_type_symbol
_atom_site_fract_x
_atom_site_fract_y
_atom_site_fract_z
_atom_site_charge
Fe	Fe	0.92630 0.75432 0.13442 1.25500
Fe	Fe	0.87877 0.25961 0.69674 1.23000
Fe	Fe	0.42630 0.74568 0.36558 1.20100
Fe	Fe	0.37877 0.24039 0.80326 1.20500
Fe	Fe	0.07370 0.24568 0.86558 1.14000
Fe	Fe	0.12123 0.74039 0.30326 1.18800
Fe	Fe	0.57370 0.25432 0.63442 1.19300
Fe	Fe	0.62123 0.75961 0.19674 1.21100
Fe	Fe	-0.00000 0.50000 -0.00000 1.10900
Fe	Fe	0.50000 0.00000 0.50000 1.18600
Fe	Fe	-0.00000 0.00000 -0.00000 1.07500
Fe	Fe	0.50000 0.50000 0.50000 1.22700
H 	H 	0.77300 0.85340 0.36840 -0.07800
H 	H 	0.05600 0.47610 0.25710 -0.12600
H 	H 	0.62800 0.53450 0.07550 -0.11800
H 	H 	0.23000 0.96470 0.20670 -0.13700
H 	H 	0.12800 0.69560 0.91660 -0.14100
H 	H 	0.71400 0.99560 0.02660 -0.10200
H 	H 	0.27300 0.64660 0.13160 -0.12400
H 	H 	0.55600 0.02390 0.24290 -0.22800
H 	H 	0.12800 0.96550 0.42450 -0.10200
H 	H 	0.73000 0.53530 0.29330 -0.08800
H 	H 	0.62800 0.80440 0.58340 -0.06900
H 	H 	0.21400 0.50440 0.47340 -0.11900
H 	H 	0.22700 0.14660 0.63160 -0.12500
H 	H 	0.94400 0.52390 0.74290 -0.05400
H 	H 	0.37200 0.46550 0.92450 -0.06500
H 	H 	0.77000 0.03530 0.79330 -0.06800
H 	H 	0.87200 0.30440 0.08340 -0.02500
H 	H 	0.28600 0.00440 0.97340 -0.08600
H 	H 	0.72700 0.35340 0.86840 -0.07600
H 	H 	0.44400 0.97610 0.75710 0.04900
H 	H 	0.87200 0.03450 0.57550 -0.08300
H 	H 	0.27000 0.46470 0.70670 -0.12100
H 	H 	0.37200 0.19560 0.41660 -0.11000
H 	H 	0.78600 0.49560 0.52660 -0.08100
C 	C 	0.84240 0.82611 0.32951 0.45300
C 	C 	0.03680 0.51856 0.20416 0.49200
C 	C 	0.71780 0.56176 0.06976 0.48000
C 	C 	0.15580 0.94050 0.17030 0.59900
C 	C 	0.08330 0.74142 0.96142 0.63000
C 	C 	0.72990 0.93501 0.06571 0.46700
C 	C 	0.34240 0.67389 0.17049 0.46800
C 	C 	0.53680 0.98144 0.29584 0.73400
C 	C 	0.21780 0.93824 0.43024 0.46400
C 	C 	0.65580 0.55950 0.32970 0.46500
C 	C 	0.58330 0.75858 0.53858 0.45500
C 	C 	0.22990 0.56499 0.43429 0.48700
C 	C 	0.15760 0.17389 0.67049 0.47100
C 	C 	0.96320 0.48144 0.79584 0.43800
C 	C 	0.28220 0.43824 0.93024 0.44900
C 	C 	0.84420 0.05950 0.82970 0.33400
C 	C 	0.91670 0.25858 0.03858 0.26800
C 	C 	0.27010 0.06499 0.93429 0.47300
C 	C 	0.65760 0.32611 0.82951 0.45500
C 	C 	0.46320 0.01856 0.70416 0.20100
C 	C 	0.78220 0.06176 0.56976 0.47300
C 	C 	0.34420 0.44050 0.67030 0.47800
C 	C 	0.41670 0.24142 0.46142 0.46900
C 	C 	0.77010 0.43501 0.56571 0.46800
O 	O 	0.81140 0.80737 0.24903 -0.51600
O 	O 	0.95381 0.81103 0.36305 -0.35300
O 	O 	0.01487 0.62776 0.21448 -0.60100
O 	O 	0.02901 0.46277 0.13449 -0.50200
O 	O 	0.74999 0.64980 0.11860 -0.53400
O 	O 	0.79346 0.50732 0.01979 -0.44500
O 	O 	0.09390 0.84674 0.18956 -0.61600
O 	O 	0.13186 0.00508 0.10814 -0.57600
O 	O 	0.01847 0.68636 0.02079 -0.69900
O 	O 	0.09163 0.84846 0.95456 -0.42400
O 	O 	0.85086 0.89991 0.06935 -0.50700
O 	O 	0.63333 0.89417 0.10567 -0.42700
O 	O 	0.31140 0.69263 0.25097 -0.54900
O 	O 	0.45381 0.68897 0.13695 -0.45000
O 	O 	0.51487 0.87224 0.28552 -0.60400
O 	O 	0.52901 0.03723 0.36551 -0.55500
O 	O 	0.24999 0.85020 0.38140 -0.54400
O 	O 	0.29346 0.99268 0.48021 -0.39400
O 	O 	0.59390 0.65326 0.31044 -0.54300
O 	O 	0.63186 0.49492 0.39186 -0.42100
O 	O 	0.51847 0.81364 0.47921 -0.52200
O 	O 	0.59163 0.65154 0.54544 -0.42600
O 	O 	0.35086 0.60009 0.43065 -0.55500
O 	O 	0.13333 0.60583 0.39433 -0.46400
O 	O 	0.18860 0.19263 0.75097 -0.57700
O 	O 	0.04619 0.18897 0.63695 -0.51100
O 	O 	0.98513 0.37224 0.78552 -0.48700
O 	O 	0.97099 0.53723 0.86551 -0.32500
O 	O 	0.25001 0.35020 0.88140 -0.54300
O 	O 	0.20654 0.49268 0.98021 -0.37600
O 	O 	0.90610 0.15326 0.81044 -0.47100
O 	O 	0.86814 0.99492 0.89186 -0.23700
O 	O 	0.98153 0.31364 0.97921 -0.33800
O 	O 	0.90837 0.15154 0.04544 -0.39000
O 	O 	0.14914 0.10009 0.93065 -0.54700
O 	O 	0.36667 0.10583 0.89433 -0.43400
O 	O 	0.68860 0.30737 0.74903 -0.54300
O 	O 	0.54619 0.31103 0.86305 -0.41000
O 	O 	0.48513 0.12776 0.71448 -0.48900
O 	O 	0.47099 0.96277 0.63449 -0.29600
O 	O 	0.75001 0.14980 0.61860 -0.53700
O 	O 	0.70654 0.00732 0.51979 -0.45100
O 	O 	0.40610 0.34674 0.68956 -0.55400
O 	O 	0.36814 0.50508 0.60814 -0.43500
O 	O 	0.48153 0.18636 0.52079 -0.54900
O 	O 	0.40837 0.34846 0.45456 -0.44600
O 	O 	0.64914 0.39991 0.56935 -0.54100
O 	O 	0.86667 0.39417 0.60567 -0.40000
