data_crystal

_cell_length_a 9.88620
_cell_length_b 11.35770
_cell_length_c 14.49590
_cell_angle_alpha 91.25160
_cell_angle_beta  90.00000
_cell_angle_gamma 90.00000

_symmetry_space_group_name_	'P 1'
_symmetry_space_group_name_H-M	'P 1'

loop_
_symmetry_equiv_pos_as_xyz
  x,y,z

loop_
_atom_site_label
_atom_site_type_symbol
_atom_site_fract_x
_atom_site_fract_y
_atom_site_fract_z
_atom_site_charge
Fe	Fe	0.91859 0.75540 0.13244 1.23900
Fe	Fe	0.89455 0.26052 0.68610 1.23000
Fe	Fe	0.41859 0.74460 0.36756 1.19800
Fe	Fe	0.39455 0.23948 0.81390 1.20900
Fe	Fe	0.08141 0.24460 0.86756 1.15100
Fe	Fe	0.10545 0.73948 0.31390 1.19200
Fe	Fe	0.58141 0.25540 0.63244 1.19100
Fe	Fe	0.60545 0.76052 0.18610 1.21200
Fe	Fe	-0.00000 0.50000 -0.00000 1.13000
Fe	Fe	0.50000 0.00000 0.50000 1.18500
Fe	Fe	-0.00000 0.00000 -0.00000 1.09600
Fe	Fe	0.50000 0.50000 0.50000 1.22200
H 	H 	0.74950 0.85920 0.36860 -0.08500
H 	H 	0.02450 0.47400 0.26900 -0.08000
H 	H 	0.61660 0.55670 0.03630 -0.07400
H 	H 	0.17490 0.98890 0.24020 -0.14500
H 	H 	0.16680 0.69780 0.93060 -0.11500
H 	H 	0.69980 0.98380 0.99960 0.05500
H 	H 	0.24950 0.64080 0.13140 -0.11600
H 	H 	0.52450 0.02600 0.23100 -0.23600
H 	H 	0.11660 0.94330 0.46370 -0.10400
H 	H 	0.67490 0.51110 0.25980 -0.10800
H 	H 	0.66680 0.80220 0.56940 -0.07600
H 	H 	0.19980 0.51620 0.50040 -0.11200
H 	H 	0.25050 0.14080 0.63140 -0.12700
H 	H 	0.97550 0.52600 0.73100 -0.11700
H 	H 	0.38340 0.44330 0.96370 -0.11700
H 	H 	0.82510 0.01110 0.75980 -0.07800
H 	H 	0.83320 0.30220 0.06940 -0.06700
H 	H 	0.30020 0.01620 0.00040 -0.22600
H 	H 	0.75050 0.35920 0.86860 -0.09300
H 	H 	0.47550 0.97400 0.76900 0.04200
H 	H 	0.88340 0.05670 0.53630 -0.08700
H 	H 	0.32510 0.48890 0.74020 -0.11900
H 	H 	0.33320 0.19780 0.43060 -0.11600
H 	H 	0.80020 0.48380 0.49960 -0.07400
C 	C 	0.82150 0.82865 0.33185 0.46500
C 	C 	0.00750 0.51510 0.21380 0.32400
C 	C 	0.70980 0.57450 0.04460 0.33700
C 	C 	0.12020 0.95820 0.19140 0.61600
C 	C 	0.10950 0.74338 0.96988 0.60500
C 	C 	0.71640 0.92662 0.04512 0.28700
C 	C 	0.32150 0.67135 0.16815 0.47600
C 	C 	0.50750 0.98490 0.28620 0.74700
C 	C 	0.20980 0.92550 0.45540 0.47700
C 	C 	0.62020 0.54180 0.30860 0.48900
C 	C 	0.60950 0.75662 0.53012 0.47500
C 	C 	0.21640 0.57338 0.45488 0.48200
C 	C 	0.17850 0.17135 0.66815 0.48200
C 	C 	0.99250 0.48490 0.78620 0.63500
C 	C 	0.29020 0.42550 0.95540 0.61600
C 	C 	0.87980 0.04180 0.80860 0.35500
C 	C 	0.89050 0.25662 0.03012 0.34400
C 	C 	0.28360 0.07338 0.95488 0.63900
C 	C 	0.67850 0.32865 0.83185 0.47000
C 	C 	0.49250 0.01510 0.71380 0.21300
C 	C 	0.79020 0.07450 0.54460 0.48100
C 	C 	0.37980 0.45820 0.69140 0.49100
C 	C 	0.39050 0.24338 0.46988 0.49300
C 	C 	0.78360 0.42662 0.54512 0.46300
O 	O 	0.79609 0.80854 0.24664 -0.52500
O 	O 	0.93052 0.81223 0.37133 -0.36200
O 	O 	0.00107 0.62633 0.22023 -0.55900
O 	O 	0.99375 0.45524 0.14234 -0.30600
O 	O 	0.73950 0.65181 0.10581 -0.50700
O 	O 	0.79096 0.51991 0.99461 -0.28800
O 	O 	0.07999 0.85241 0.19847 -0.61600
O 	O 	0.09535 0.02458 0.12788 -0.56700
O 	O 	0.02930 0.68709 0.02269 -0.66700
O 	O 	0.11882 0.85078 0.96548 -0.41600
O 	O 	0.83939 0.89632 0.05757 -0.46600
O 	O 	0.61704 0.88876 0.08666 -0.37700
O 	O 	0.29609 0.69146 0.25336 -0.55200
O 	O 	0.43052 0.68777 0.12867 -0.44200
O 	O 	0.50107 0.87367 0.27977 -0.61400
O 	O 	0.49375 0.04476 0.35766 -0.54700
O 	O 	0.23950 0.84819 0.39419 -0.54900
O 	O 	0.29096 0.98009 0.50539 -0.39700
O 	O 	0.57999 0.64759 0.30153 -0.55000
O 	O 	0.59535 0.47542 0.37212 -0.43700
O 	O 	0.52930 0.81291 0.47731 -0.53400
O 	O 	0.61882 0.64922 0.53452 -0.42600
O 	O 	0.33939 0.60368 0.44243 -0.55400
O 	O 	0.11704 0.61124 0.41334 -0.46300
O 	O 	0.20391 0.19146 0.75336 -0.57800
O 	O 	0.06948 0.18777 0.62867 -0.50000
O 	O 	0.99893 0.37367 0.77977 -0.54600
O 	O 	0.00625 0.54476 0.85766 -0.51700
O 	O 	0.26050 0.34819 0.89419 -0.58600
O 	O 	0.20904 0.48009 0.00539 -0.54600
O 	O 	0.92001 0.14759 0.80153 -0.48200
O 	O 	0.90465 0.97542 0.87212 -0.27300
O 	O 	0.97070 0.31291 0.97731 -0.40100
O 	O 	0.88118 0.14922 0.03452 -0.41100
O 	O 	0.16061 0.10368 0.94243 -0.59400
O 	O 	0.38296 0.11124 0.91334 -0.48200
O 	O 	0.70391 0.30854 0.74664 -0.55000
O 	O 	0.56948 0.31223 0.87133 -0.41700
O 	O 	0.49893 0.12633 0.72023 -0.49400
O 	O 	0.50625 0.95524 0.64234 -0.29300
O 	O 	0.76050 0.15181 0.60581 -0.54700
O 	O 	0.70904 0.01991 0.49461 -0.45500
O 	O 	0.42001 0.35241 0.69847 -0.55800
O 	O 	0.40465 0.52458 0.62788 -0.44100
O 	O 	0.47070 0.18709 0.52269 -0.55900
O 	O 	0.38118 0.35078 0.46548 -0.44800
O 	O 	0.66061 0.39632 0.55757 -0.54200
O 	O 	0.88296 0.38876 0.58666 -0.40100
