data_crystal

_cell_length_a 9.80580
_cell_length_b 11.34160
_cell_length_c 14.55340
_cell_angle_alpha 91.19620
_cell_angle_beta  90.00000
_cell_angle_gamma 90.00000

_symmetry_space_group_name_	'P 1'
_symmetry_space_group_name_H-M	'P 1'

loop_
_symmetry_equiv_pos_as_xyz
  x,y,z

loop_
_atom_site_label
_atom_site_type_symbol
_atom_site_fract_x
_atom_site_fract_y
_atom_site_fract_z
_atom_site_charge
Fe	Fe	0.91673 0.75594 0.13164 1.22000
Fe	Fe	0.89820 0.26085 0.68576 1.23700
Fe	Fe	0.41673 0.74406 0.36836 1.19800
Fe	Fe	0.39820 0.23915 0.81424 1.21000
Fe	Fe	0.08327 0.24406 0.86836 1.17500
Fe	Fe	0.10180 0.73915 0.31424 1.18400
Fe	Fe	0.58327 0.25594 0.63164 1.19100
Fe	Fe	0.60180 0.76085 0.18576 1.21200
Fe	Fe	-0.00000 0.50000 -0.00000 1.12800
Fe	Fe	0.50000 -0.00000 0.50000 1.18200
Fe	Fe	-0.00000 0.00000 -0.00000 1.09200
Fe	Fe	0.50000 0.50000 0.50000 1.22100
H 	H 	0.74550 0.86430 0.36600 -0.08600
H 	H 	0.01850 0.47280 0.26920 -0.04400
H 	H 	0.61320 0.55900 0.03440 -0.07000
H 	H 	0.18460 0.98340 0.23700 -0.14600
H 	H 	0.17480 0.69800 0.93560 -0.11900
H 	H 	0.69720 0.99240 0.00550 -0.09100
H 	H 	0.24550 0.63570 0.13400 -0.12200
H 	H 	0.51850 0.02720 0.23080 -0.24300
H 	H 	0.11320 0.94100 0.46560 -0.09700
H 	H 	0.68460 0.51660 0.26300 -0.11000
H 	H 	0.67480 0.80200 0.56440 -0.07600
H 	H 	0.19720 0.50760 0.49450 -0.10600
H 	H 	0.25450 0.13570 0.63400 -0.12700
H 	H 	0.98150 0.52720 0.73080 -0.14200
H 	H 	0.38680 0.44100 0.96560 -0.12200
H 	H 	0.81540 0.01660 0.76300 -0.07500
H 	H 	0.82520 0.30200 0.06440 -0.06600
H 	H 	0.30280 0.00760 0.99450 -0.07900
H 	H 	0.75450 0.36430 0.86600 -0.08900
H 	H 	0.48150 0.97280 0.76920 0.05300
H 	H 	0.88680 0.05900 0.53440 -0.09400
H 	H 	0.31540 0.48340 0.73700 -0.11400
H 	H 	0.32520 0.19800 0.43560 -0.11700
H 	H 	0.80280 0.49240 0.50550 -0.07500
C 	C 	0.81810 0.83289 0.32979 0.46600
C 	C 	0.00300 0.51418 0.21408 0.21600
C 	C 	0.70710 0.57679 0.04309 0.30900
C 	C 	0.12690 0.95479 0.18909 0.62000
C 	C 	0.11190 0.74327 0.97127 0.64300
C 	C 	0.71360 0.93138 0.04788 0.45800
C 	C 	0.31810 0.66711 0.17021 0.47600
C 	C 	0.50300 0.98582 0.28592 0.75100
C 	C 	0.20710 0.92321 0.45691 0.47700
C 	C 	0.62690 0.54521 0.31091 0.48200
C 	C 	0.61190 0.75673 0.52873 0.47300
C 	C 	0.21360 0.56862 0.45212 0.47600
C 	C 	0.18190 0.16711 0.67021 0.48200
C 	C 	0.99700 0.48582 0.78592 0.70700
C 	C 	0.29290 0.42321 0.95691 0.65600
C 	C 	0.87310 0.04521 0.81091 0.33900
C 	C 	0.88810 0.25673 0.02873 0.31400
C 	C 	0.28640 0.06862 0.95212 0.46300
C 	C 	0.68190 0.33289 0.82979 0.47000
C 	C 	0.49700 0.01418 0.71408 0.19200
C 	C 	0.79290 0.07679 0.54309 0.48500
C 	C 	0.37310 0.45479 0.68909 0.48700
C 	C 	0.38810 0.24327 0.47127 0.49300
C 	C 	0.78640 0.43138 0.54788 0.45800
O 	O 	0.79344 0.81098 0.24494 -0.53400
O 	O 	0.92836 0.81671 0.36891 -0.38100
O 	O 	0.99631 0.62600 0.22021 -0.41300
O 	O 	0.99110 0.45461 0.14221 -0.29700
O 	O 	0.73633 0.65238 0.10509 -0.50900
O 	O 	0.78935 0.52356 0.99256 -0.26900
O 	O 	0.08019 0.85066 0.19718 -0.61900
O 	O 	0.10503 0.02184 0.12558 -0.57300
O 	O 	0.03126 0.68625 0.02376 -0.68600
O 	O 	0.11538 0.85062 0.96282 -0.42100
O 	O 	0.83733 0.89806 0.05787 -0.51600
O 	O 	0.61320 0.89137 0.08847 -0.42700
O 	O 	0.29344 0.68902 0.25506 -0.55600
O 	O 	0.42836 0.68329 0.13109 -0.45000
O 	O 	0.49631 0.87400 0.27979 -0.61100
O 	O 	0.49110 0.04539 0.35779 -0.54800
O 	O 	0.23633 0.84762 0.39491 -0.54800
O 	O 	0.28935 0.97644 0.50744 -0.39300
O 	O 	0.58019 0.64934 0.30282 -0.54900
O 	O 	0.60503 0.47816 0.37442 -0.43300
O 	O 	0.53126 0.81375 0.47624 -0.53200
O 	O 	0.61538 0.64938 0.53718 -0.43000
O 	O 	0.33733 0.60194 0.44213 -0.55200
O 	O 	0.11320 0.60863 0.41153 -0.46000
O 	O 	0.20656 0.18902 0.75506 -0.56800
O 	O 	0.07164 0.18329 0.63109 -0.48700
O 	O 	0.00369 0.37400 0.77979 -0.67200
O 	O 	0.00890 0.54539 0.85779 -0.50500
O 	O 	0.26367 0.34762 0.89491 -0.58800
O 	O 	0.21065 0.47644 0.00744 -0.57000
O 	O 	0.91981 0.14934 0.80282 -0.47800
O 	O 	0.89497 0.97816 0.87442 -0.25900
O 	O 	0.96874 0.31375 0.97624 -0.39100
O 	O 	0.88462 0.14938 0.03718 -0.41400
O 	O 	0.16267 0.10194 0.94213 -0.53700
O 	O 	0.38680 0.10863 0.91153 -0.43100
O 	O 	0.70656 0.31098 0.74494 -0.54600
O 	O 	0.57164 0.31671 0.86891 -0.41700
O 	O 	0.50369 0.12600 0.72021 -0.48500
O 	O 	0.50890 0.95461 0.64221 -0.28000
O 	O 	0.76367 0.15238 0.60509 -0.55100
O 	O 	0.71065 0.02356 0.49256 -0.45800
O 	O 	0.41981 0.35066 0.69718 -0.55400
O 	O 	0.39497 0.52184 0.62558 -0.43500
O 	O 	0.46874 0.18625 0.52376 -0.56000
O 	O 	0.38462 0.35062 0.46282 -0.45100
O 	O 	0.66267 0.39806 0.55787 -0.54100
O 	O 	0.88680 0.39137 0.58847 -0.40100
