data_crystal

_cell_length_a 10.02050
_cell_length_b 11.49640
_cell_length_c 14.84520
_cell_angle_alpha 91.54760
_cell_angle_beta  90.00000
_cell_angle_gamma 90.00000

_symmetry_space_group_name_	'P 1'
_symmetry_space_group_name_H-M	'P 1'

loop_
_symmetry_equiv_pos_as_xyz
  x,y,z

loop_
_atom_site_label
_atom_site_type_symbol
_atom_site_fract_x
_atom_site_fract_y
_atom_site_fract_z
_atom_site_charge
Fe	Fe	0.92595 0.75618 0.13302 1.25700
Fe	Fe	0.88181 0.25958 0.69273 1.23400
Fe	Fe	0.42595 0.74382 0.36698 1.20200
Fe	Fe	0.38181 0.24042 0.80727 1.20900
Fe	Fe	0.07405 0.24382 0.86698 1.14100
Fe	Fe	0.11819 0.74042 0.30727 1.19300
Fe	Fe	0.57405 0.25618 0.63302 1.19400
Fe	Fe	0.61819 0.75958 0.19273 1.21600
Fe	Fe	-0.00000 0.50000 -0.00000 1.11000
Fe	Fe	0.50000 0.00000 0.50000 1.18800
Fe	Fe	-0.00000 0.00000 -0.00000 1.07800
Fe	Fe	0.50000 0.50000 0.50000 1.22700
H 	H 	0.76870 0.84960 0.36900 -0.09800
H 	H 	0.05340 0.48100 0.25830 -0.14900
H 	H 	0.62610 0.55540 0.04910 -0.14200
H 	H 	0.20080 0.97690 0.22360 -0.17200
H 	H 	0.15000 0.69860 0.92640 -0.16600
H 	H 	0.71030 0.99470 0.02300 -0.10700
H 	H 	0.26870 0.65040 0.13100 -0.14600
H 	H 	0.55340 0.01900 0.24170 -0.26300
H 	H 	0.12610 0.94460 0.45090 -0.12200
H 	H 	0.70080 0.52310 0.27640 -0.12000
H 	H 	0.65000 0.80140 0.57360 -0.09100
H 	H 	0.21030 0.50530 0.47700 -0.12700
H 	H 	0.23130 0.15040 0.63100 -0.14500
H 	H 	0.94660 0.51900 0.74170 -0.07700
H 	H 	0.37390 0.44460 0.95090 -0.07500
H 	H 	0.79920 0.02310 0.77640 -0.08900
H 	H 	0.85000 0.30140 0.07360 -0.04100
H 	H 	0.28970 0.00530 0.97700 -0.09400
H 	H 	0.73130 0.34960 0.86900 -0.09400
H 	H 	0.44660 0.98100 0.75830 0.03700
H 	H 	0.87390 0.05540 0.54910 -0.09700
H 	H 	0.29920 0.47690 0.72360 -0.14600
H 	H 	0.35000 0.19860 0.42640 -0.13200
H 	H 	0.78970 0.49470 0.52300 -0.08700
C 	C 	0.83690 0.82186 0.33186 0.49100
C 	C 	0.02790 0.51962 0.20682 0.53900
C 	C 	0.71630 0.57357 0.05377 0.52300
C 	C 	0.13900 0.95024 0.18114 0.66300
C 	C 	0.09740 0.74262 0.96602 0.69400
C 	C 	0.72780 0.93355 0.06105 0.48400
C 	C 	0.33690 0.67814 0.16814 0.51100
C 	C 	0.52790 0.98038 0.29318 0.79900
C 	C 	0.21630 0.92643 0.44623 0.50300
C 	C 	0.63900 0.54976 0.31886 0.52100
C 	C 	0.59740 0.75738 0.53398 0.50300
C 	C 	0.22780 0.56645 0.43895 0.50800
C 	C 	0.16310 0.17814 0.66814 0.51400
C 	C 	0.97210 0.48038 0.79318 0.47900
C 	C 	0.28370 0.42643 0.94623 0.47800
C 	C 	0.86100 0.04976 0.81886 0.37900
C 	C 	0.90260 0.25738 0.03398 0.30200
C 	C 	0.27220 0.06645 0.93895 0.49400
C 	C 	0.66310 0.32186 0.83186 0.49300
C 	C 	0.47210 0.01962 0.70682 0.22400
C 	C 	0.78370 0.07357 0.55377 0.50700
C 	C 	0.36100 0.45024 0.68114 0.53300
C 	C 	0.40260 0.24262 0.46602 0.52300
C 	C 	0.77220 0.43355 0.56105 0.48600
O 	O 	0.80855 0.80356 0.24934 -0.52600
O 	O 	0.94673 0.80619 0.36734 -0.36200
O 	O 	0.01609 0.62894 0.21420 -0.61400
O 	O 	0.00907 0.45933 0.13851 -0.51300
O 	O 	0.74766 0.65437 0.10985 -0.54900
O 	O 	0.79281 0.51661 0.00497 -0.46100
O 	O 	0.08792 0.85162 0.19401 -0.63500
O 	O 	0.11551 0.01423 0.11837 -0.59300
O 	O 	0.02652 0.68673 0.02159 -0.71700
O 	O 	0.10325 0.84827 0.95954 -0.44300
O 	O 	0.84807 0.90000 0.06550 -0.51500
O 	O 	0.63125 0.89386 0.10183 -0.43000
O 	O 	0.30855 0.69644 0.25066 -0.56100
O 	O 	0.44673 0.69381 0.13266 -0.46100
O 	O 	0.51609 0.87106 0.28580 -0.62600
O 	O 	0.50907 0.04067 0.36149 -0.56500
O 	O 	0.24766 0.84563 0.39015 -0.55700
O 	O 	0.29281 0.98339 0.49503 -0.40600
O 	O 	0.58792 0.64838 0.30599 -0.55800
O 	O 	0.61551 0.48577 0.38163 -0.44000
O 	O 	0.52652 0.81327 0.47841 -0.53700
O 	O 	0.60325 0.65173 0.54046 -0.43700
O 	O 	0.34807 0.60000 0.43450 -0.56300
O 	O 	0.13125 0.60614 0.39817 -0.46900
O 	O 	0.19145 0.19644 0.75066 -0.59100
O 	O 	0.05327 0.19381 0.63266 -0.52100
O 	O 	0.98391 0.37106 0.78580 -0.50100
O 	O 	0.99093 0.54067 0.86149 -0.32700
O 	O 	0.25234 0.34563 0.89015 -0.55300
O 	O 	0.20719 0.48339 0.99503 -0.38100
O 	O 	0.91208 0.14838 0.80599 -0.48100
O 	O 	0.88449 0.98577 0.88163 -0.25500
O 	O 	0.97348 0.31327 0.97841 -0.34800
O 	O 	0.89675 0.15173 0.04046 -0.39700
O 	O 	0.15193 0.10000 0.93450 -0.55400
O 	O 	0.36875 0.10614 0.89817 -0.43800
O 	O 	0.69145 0.30356 0.74934 -0.55400
O 	O 	0.55327 0.30619 0.86734 -0.41800
O 	O 	0.48391 0.12894 0.71420 -0.49400
O 	O 	0.49093 0.95933 0.63851 -0.29900
O 	O 	0.75234 0.15437 0.60985 -0.55000
O 	O 	0.70719 0.01661 0.50497 -0.46000
O 	O 	0.41208 0.35162 0.69401 -0.56900
O 	O 	0.38449 0.51423 0.61837 -0.45200
O 	O 	0.47348 0.18673 0.52159 -0.56300
O 	O 	0.39675 0.34827 0.45954 -0.46000
O 	O 	0.65193 0.40000 0.56550 -0.54900
O 	O 	0.86875 0.39386 0.60183 -0.40400
