data_crystal

_cell_length_a 9.75770
_cell_length_b 11.31900
_cell_length_c 14.51560
_cell_angle_alpha 91.06170
_cell_angle_beta  90.00000
_cell_angle_gamma 90.00000

_symmetry_space_group_name_	'P 1'
_symmetry_space_group_name_H-M	'P 1'

loop_
_symmetry_equiv_pos_as_xyz
  x,y,z

loop_
_atom_site_label
_atom_site_type_symbol
_atom_site_fract_x
_atom_site_fract_y
_atom_site_fract_z
_atom_site_charge
Fe	Fe	0.91571 0.75587 0.13143 1.21700
Fe	Fe	0.90021 0.26134 0.68501 1.23600
Fe	Fe	0.41571 0.74413 0.36857 1.19700
Fe	Fe	0.40021 0.23866 0.81499 1.21000
Fe	Fe	0.08429 0.24413 0.86857 1.17400
Fe	Fe	0.09979 0.73866 0.31499 1.18400
Fe	Fe	0.58429 0.25587 0.63143 1.19000
Fe	Fe	0.59979 0.76134 0.18501 1.21200
Fe	Fe	-0.00000 0.50000 -0.00000 1.12800
Fe	Fe	0.50000 0.00000 0.50000 1.18200
Fe	Fe	-0.00000 0.00000 -0.00000 1.09000
Fe	Fe	0.50000 0.50000 0.50000 1.22000
H 	H 	0.74340 0.86710 0.36510 -0.08600
H 	H 	0.01620 0.47150 0.26980 -0.04400
H 	H 	0.61120 0.55950 0.03290 -0.07000
H 	H 	0.18380 0.98380 0.23840 -0.14300
H 	H 	0.17860 0.69760 0.93690 -0.11600
H 	H 	0.69570 0.99180 0.00290 -0.09000
H 	H 	0.24340 0.63290 0.13490 -0.12300
H 	H 	0.51620 0.02850 0.23020 -0.24400
H 	H 	0.11120 0.94050 0.46710 -0.09600
H 	H 	0.68380 0.51620 0.26160 -0.10700
H 	H 	0.67860 0.80240 0.56310 -0.07300
H 	H 	0.19570 0.50820 0.49710 -0.10400
H 	H 	0.25660 0.13290 0.63490 -0.12800
H 	H 	0.98380 0.52850 0.73020 -0.14200
H 	H 	0.38880 0.44050 0.96710 -0.12100
H 	H 	0.81620 0.01620 0.76160 -0.07300
H 	H 	0.82140 0.30240 0.06310 -0.06400
H 	H 	0.30430 0.00820 0.99710 -0.07700
H 	H 	0.75660 0.36710 0.86510 -0.09000
H 	H 	0.48380 0.97150 0.76980 0.05400
H 	H 	0.88880 0.05950 0.53290 -0.09300
H 	H 	0.31620 0.48380 0.73840 -0.11100
H 	H 	0.32140 0.19760 0.43690 -0.11400
H 	H 	0.80430 0.49180 0.50290 -0.07300
C 	C 	0.81620 0.83447 0.32937 0.46800
C 	C 	0.00090 0.51323 0.21453 0.21700
C 	C 	0.70550 0.57709 0.04189 0.30800
C 	C 	0.12640 0.95527 0.19007 0.61000
C 	C 	0.11420 0.74298 0.97168 0.63400
C 	C 	0.71160 0.93131 0.04611 0.45400
C 	C 	0.31620 0.66553 0.17063 0.47900
C 	C 	0.50090 0.98677 0.28547 0.75400
C 	C 	0.20550 0.92291 0.45811 0.47500
C 	C 	0.62640 0.54473 0.30993 0.47400
C 	C 	0.61420 0.75702 0.52832 0.46500
C 	C 	0.21160 0.56869 0.45389 0.47100
C 	C 	0.18380 0.16553 0.67063 0.48400
C 	C 	0.99910 0.48677 0.78547 0.70800
C 	C 	0.29450 0.42291 0.95811 0.65300
C 	C 	0.87360 0.04473 0.80993 0.33300
C 	C 	0.88580 0.25702 0.02832 0.30700
C 	C 	0.28840 0.06869 0.95389 0.45800
C 	C 	0.68380 0.33447 0.82937 0.47300
C 	C 	0.49910 0.01323 0.71453 0.19200
C 	C 	0.79450 0.07709 0.54189 0.48300
C 	C 	0.37360 0.45527 0.69007 0.47900
C 	C 	0.38580 0.24298 0.47168 0.48500
C 	C 	0.78840 0.43131 0.54611 0.45300
O 	O 	0.79149 0.81230 0.24450 -0.53600
O 	O 	0.92600 0.81745 0.36949 -0.38200
O 	O 	0.99370 0.62532 0.22109 -0.41400
O 	O 	0.98983 0.45392 0.14255 -0.29700
O 	O 	0.73471 0.65224 0.10438 -0.50900
O 	O 	0.78871 0.52416 0.99116 -0.26800
O 	O 	0.07996 0.85041 0.19759 -0.61600
O 	O 	0.10418 0.02306 0.12629 -0.56800
O 	O 	0.03177 0.68633 0.02387 -0.68400
O 	O 	0.11717 0.85112 0.96278 -0.41500
O 	O 	0.83593 0.89797 0.05699 -0.51600
O 	O 	0.60985 0.89178 0.08679 -0.42400
O 	O 	0.29149 0.68770 0.25550 -0.55800
O 	O 	0.42600 0.68255 0.13051 -0.45200
O 	O 	0.49370 0.87468 0.27891 -0.61100
O 	O 	0.48983 0.04608 0.35745 -0.55000
O 	O 	0.23471 0.84776 0.39562 -0.54800
O 	O 	0.28871 0.97584 0.50884 -0.39100
O 	O 	0.57996 0.64959 0.30241 -0.54700
O 	O 	0.60418 0.47694 0.37371 -0.42900
O 	O 	0.53177 0.81367 0.47613 -0.53100
O 	O 	0.61717 0.64888 0.53722 -0.42500
O 	O 	0.33593 0.60203 0.44301 -0.55100
O 	O 	0.10985 0.60822 0.41321 -0.45700
O 	O 	0.20851 0.18770 0.75550 -0.57000
O 	O 	0.07400 0.18255 0.63051 -0.48700
O 	O 	0.00630 0.37468 0.77891 -0.67200
O 	O 	0.01017 0.54608 0.85745 -0.50600
O 	O 	0.26529 0.34776 0.89562 -0.58700
O 	O 	0.21129 0.47584 0.00884 -0.56800
O 	O 	0.92004 0.14959 0.80241 -0.47700
O 	O 	0.89582 0.97694 0.87371 -0.25600
O 	O 	0.96823 0.31367 0.97613 -0.39000
O 	O 	0.88283 0.14888 0.03722 -0.41000
O 	O 	0.16407 0.10203 0.94301 -0.53600
O 	O 	0.39015 0.10822 0.91321 -0.42700
O 	O 	0.70851 0.31230 0.74450 -0.54800
O 	O 	0.57400 0.31745 0.86949 -0.41700
O 	O 	0.50630 0.12532 0.72109 -0.48500
O 	O 	0.51017 0.95392 0.64255 -0.28100
O 	O 	0.76529 0.15224 0.60438 -0.55100
O 	O 	0.71129 0.02416 0.49116 -0.45700
O 	O 	0.42004 0.35041 0.69759 -0.55200
O 	O 	0.39582 0.52306 0.62629 -0.43100
O 	O 	0.46823 0.18633 0.52387 -0.55800
O 	O 	0.38283 0.35112 0.46278 -0.44600
O 	O 	0.66407 0.39797 0.55699 -0.54100
O 	O 	0.89015 0.39178 0.58679 -0.39700
