data_crystal

_cell_length_a 8.66180
_cell_length_b 9.03110
_cell_length_c 16.17280
_cell_angle_alpha 82.62170
_cell_angle_beta  74.46720
_cell_angle_gamma 61.34370

_symmetry_space_group_name_	'P 1'
_symmetry_space_group_name_H-M	'P 1'

loop_
_symmetry_equiv_pos_as_xyz
  x,y,z

loop_
_atom_site_label
_atom_site_type_symbol
_atom_site_fract_x
_atom_site_fract_y
_atom_site_fract_z
_atom_site_charge
In	In	0.96834 0.02738 0.37063 1.99700
In	In	0.36635 0.97261 0.62938 1.99800
In	In	0.08896 0.52739 0.12937 2.00000
In	In	0.74572 0.47262 0.87062 2.00000
H 	H 	0.32640 0.33740 0.46480 0.07100
H 	H 	0.17520 0.48880 0.42720 0.07200
H 	H 	0.38270 0.60700 0.41740 0.20600
H 	H 	0.40440 0.50680 0.34760 0.20200
H 	H 	0.51640 0.43000 0.40920 0.19700
H 	H 	0.12860 0.66260 0.53520 0.07000
H 	H 	0.09120 0.51120 0.57280 0.07200
H 	H 	0.40710 0.39300 0.58260 0.20600
H 	H 	0.25880 0.49320 0.65240 0.20200
H 	H 	0.35560 0.57000 0.59080 0.19700
H 	H 	0.54120 0.83740 0.03520 0.07000
H 	H 	0.35240 0.98880 0.07280 0.06900
H 	H 	0.55010 0.10700 0.08260 0.20600
H 	H 	0.50200 0.00680 0.15240 0.20200
H 	H 	0.67560 0.93000 0.09080 0.20000
H 	H 	0.41380 0.16260 0.96480 0.07200
H 	H 	0.41400 0.01120 0.92720 0.07400
H 	H 	0.73970 0.89300 0.91740 0.20600
H 	H 	0.66120 0.99320 0.84760 0.20100
H 	H 	0.69640 0.07000 0.90920 0.19700
C 	C 	0.20283 0.93320 0.49774 0.24900
C 	C 	0.10122 0.12400 0.50896 0.22800
C 	C 	0.12709 0.22560 0.24882 0.24800
C 	C 	0.92285 0.34800 0.26710 0.23200
C 	C 	0.63377 0.06680 0.50226 0.25800
C 	C 	0.73418 0.87600 0.49104 0.20800
C 	C 	0.60151 0.77440 0.75118 0.24000
C 	C 	0.53795 0.65200 0.73290 0.24000
C 	C 	0.45057 0.43320 0.00226 0.26000
C 	C 	0.36018 0.62400 0.99104 0.20700
C 	C 	0.12591 0.72560 0.25118 0.23900
C 	C 	0.93995 0.84800 0.23290 0.24200
C 	C 	0.88603 0.56680 0.99774 0.25700
C 	C 	0.97522 0.37600 0.00896 0.20000
C 	C 	0.10269 0.27440 0.74882 0.23700
C 	C 	0.02085 0.15200 0.76710 0.25800
C 	C 	0.26980 0.45880 0.45700 -0.02500
C 	C 	0.18560 0.54120 0.54300 -0.02500
C 	C 	0.47680 0.95880 0.04300 -0.02200
C 	C 	0.47860 0.04120 0.95700 -0.02500
N 	N 	0.40693 0.50540 0.40234 -0.39200
N 	N 	0.31467 0.49460 0.59766 -0.39200
N 	N 	0.55927 0.00540 0.09766 -0.39500
N 	N 	0.66233 0.99460 0.90234 -0.39200
O 	O 	0.17483 0.87102 0.44272 -0.44900
O 	O 	0.99196 0.20330 0.46278 -0.37100
O 	O 	0.17510 0.08304 0.28356 -0.43400
O 	O 	0.82123 0.29840 0.31654 -0.39000
O 	O 	0.31071 0.84616 0.54462 -0.45800
O 	O 	0.13951 0.18050 0.56288 -0.38300
O 	O 	0.23069 0.27676 0.20146 -0.38500
O 	O 	0.87718 0.49060 0.23004 -0.41900
O 	O 	0.48857 0.12898 0.55728 -0.45000
O 	O 	0.65804 0.79670 0.53722 -0.35800
O 	O 	0.54170 0.91696 0.71644 -0.43900
O 	O 	0.43617 0.70160 0.68346 -0.39100
O 	O 	0.70149 0.15384 0.45538 -0.46000
O 	O 	0.88289 0.81950 0.43712 -0.37900
O 	O 	0.70891 0.72324 0.79854 -0.38500
O 	O 	0.59782 0.50940 0.76996 -0.42000
O 	O 	0.36755 0.37102 0.05728 -0.45100
O 	O 	0.20474 0.70330 0.03722 -0.35700
O 	O 	0.20866 0.58304 0.21644 -0.43700
O 	O 	0.88777 0.79840 0.18346 -0.39000
O 	O 	0.60533 0.34616 0.95538 -0.45900
O 	O 	0.45239 0.68050 0.93712 -0.38100
O 	O 	0.18215 0.77676 0.29854 -0.38400
O 	O 	0.85722 0.99060 0.26996 -0.41600
O 	O 	0.79585 0.62898 0.94272 -0.45200
O 	O 	0.94526 0.29670 0.96278 -0.36000
O 	O 	0.00814 0.41696 0.78356 -0.43200
O 	O 	0.86963 0.20160 0.81654 -0.40300
O 	O 	0.90687 0.65384 0.04462 -0.45800
O 	O 	0.07001 0.31950 0.06288 -0.37300
O 	O 	0.25745 0.22324 0.70146 -0.38200
O 	O 	0.11778 0.00940 0.73004 -0.41600
