data_crystal

_cell_length_a 8.54160
_cell_length_b 13.66880
_cell_length_c 18.22500
_cell_angle_alpha 88.27020
_cell_angle_beta  84.45590
_cell_angle_gamma 71.79320

_symmetry_space_group_name_	'P 1'
_symmetry_space_group_name_H-M	'P 1'

loop_
_symmetry_equiv_pos_as_xyz
  x,y,z

loop_
_atom_site_label
_atom_site_type_symbol
_atom_site_fract_x
_atom_site_fract_y
_atom_site_fract_z
_atom_site_charge
Zn	Zn	0.37707 0.44664 0.47113 1.22300
Zn	Zn	0.18991 0.67560 0.50836 1.21700
Zn	Zn	0.17629 0.44664 0.02887 1.22200
Zn	Zn	0.13449 0.67560 0.99164 1.21700
Zn	Zn	0.62293 0.55336 0.52887 1.22300
Zn	Zn	0.81009 0.32440 0.49164 1.21700
Zn	Zn	0.82371 0.55336 0.97113 1.22200
Zn	Zn	0.86551 0.32440 0.00836 1.21700
H 	H 	0.66740 0.38380 0.24070 0.14200
H 	H 	0.47900 0.65040 0.16340 0.19900
H 	H 	0.34850 0.61320 0.21370 0.19500
H 	H 	0.27280 0.98780 0.60680 0.08300
H 	H 	0.22520 0.83440 0.61270 -0.02100
H 	H 	0.17070 0.84320 0.40490 -0.01500
H 	H 	0.21180 0.99940 0.39420 0.08100
H 	H 	0.36040 0.11700 0.59190 0.07500
H 	H 	0.41930 0.26780 0.57650 0.00100
H 	H 	0.24620 0.30880 0.38730 0.00600
H 	H 	0.19610 0.15400 0.39490 0.07800
H 	H 	0.94880 0.38380 0.25930 0.14000
H 	H 	0.87060 0.65040 0.33660 0.19700
H 	H 	0.03830 0.61320 0.28630 0.19200
H 	H 	0.73940 0.98780 0.89320 0.07900
H 	H 	0.94040 0.83440 0.88730 -0.01900
H 	H 	0.98610 0.84320 0.09510 -0.01300
H 	H 	0.78880 0.99940 0.10580 0.07900
H 	H 	0.52260 0.11700 0.90810 0.07600
H 	H 	0.31290 0.26780 0.92350 0.00000
H 	H 	0.44500 0.30880 0.11270 0.00500
H 	H 	0.64990 0.15400 0.10510 0.07800
H 	H 	0.33260 0.61620 0.75930 0.14200
H 	H 	0.52100 0.34960 0.83660 0.19900
H 	H 	0.65150 0.38680 0.78630 0.19500
H 	H 	0.72720 0.01220 0.39320 0.08300
H 	H 	0.77480 0.16560 0.38730 -0.02100
H 	H 	0.82930 0.15680 0.59510 -0.01500
H 	H 	0.78820 0.00060 0.60580 0.08100
H 	H 	0.63960 0.88300 0.40810 0.07500
H 	H 	0.58070 0.73220 0.42350 0.00100
H 	H 	0.75380 0.69120 0.61270 0.00600
H 	H 	0.80390 0.84600 0.60510 0.07800
H 	H 	0.05120 0.61620 0.74070 0.14000
H 	H 	0.12940 0.34960 0.66340 0.19700
H 	H 	0.96170 0.38680 0.71370 0.19200
H 	H 	0.26060 0.01220 0.10680 0.07900
H 	H 	0.05960 0.16560 0.11270 -0.01900
H 	H 	0.01390 0.15680 0.90490 -0.01300
H 	H 	0.21120 0.00060 0.89420 0.07900
H 	H 	0.47740 0.88300 0.09190 0.07600
H 	H 	0.68710 0.73220 0.07650 0.00000
H 	H 	0.55500 0.69120 0.88730 0.00500
H 	H 	0.35010 0.84600 0.89490 0.07800
C 	C 	0.50182 0.48636 0.31885 0.32200
C 	C 	0.58653 0.44794 0.24237 -0.25900
C 	C 	0.55904 0.49332 0.18191 0.16000
C 	C 	0.68052 0.45456 0.11382 0.31900
C 	C 	0.42729 0.59642 0.17038 -0.47500
C 	C 	0.33712 0.59056 0.10263 0.52000
C 	C 	0.25000 0.96040 0.56449 -0.15800
C 	C 	0.22315 0.86810 0.56757 0.09900
C 	C 	0.19060 0.87320 0.44671 0.10200
C 	C 	0.21503 0.96714 0.43999 -0.15900
C 	C 	0.24389 0.01422 0.49966 0.07700
C 	C 	0.27584 0.11372 0.49394 0.05400
C 	C 	0.33904 0.15332 0.54813 -0.12900
C 	C 	0.37160 0.24520 0.53931 0.08300
C 	C 	0.27299 0.26842 0.42908 0.09100
C 	C 	0.24134 0.17512 0.43356 -0.15100
C 	C 	0.01182 0.48636 0.18115 0.31800
C 	C 	0.96553 0.44794 0.25763 -0.25400
C 	C 	0.94764 0.49332 0.31809 0.15700
C 	C 	0.86492 0.45456 0.38618 0.32100
C 	C 	0.97629 0.59642 0.32962 -0.46800
C 	C 	0.07232 0.59056 0.39737 0.51700
C 	C 	0.78960 0.96040 0.93551 -0.14900
C 	C 	0.90875 0.86810 0.93243 0.09300
C 	C 	0.93620 0.87320 0.05329 0.10000
C 	C 	0.81783 0.96714 0.06001 -0.14600
C 	C 	0.74189 0.01422 0.00034 0.06300
C 	C 	0.61044 0.11372 0.00606 0.05800
C 	C 	0.50764 0.15332 0.95187 -0.13100
C 	C 	0.38320 0.24520 0.96069 0.08600
C 	C 	0.45859 0.26842 0.07092 0.09300
C 	C 	0.58354 0.17512 0.06644 -0.15500
C 	C 	0.49818 0.51364 0.68115 0.32200
C 	C 	0.41347 0.55206 0.75763 -0.25900
C 	C 	0.44096 0.50668 0.81809 0.16000
C 	C 	0.31948 0.54544 0.88618 0.31900
C 	C 	0.57271 0.40358 0.82962 -0.47500
C 	C 	0.66288 0.40944 0.89737 0.52000
C 	C 	0.75000 0.03960 0.43551 -0.15800
C 	C 	0.77685 0.13190 0.43243 0.09900
C 	C 	0.80940 0.12680 0.55329 0.10200
C 	C 	0.78497 0.03286 0.56001 -0.15900
C 	C 	0.75611 0.98578 0.50034 0.07700
C 	C 	0.72416 0.88628 0.50606 0.05400
C 	C 	0.66096 0.84668 0.45187 -0.12900
C 	C 	0.62840 0.75480 0.46069 0.08300
C 	C 	0.72701 0.73158 0.57092 0.09100
C 	C 	0.75866 0.82488 0.56644 -0.15100
C 	C 	0.98818 0.51364 0.81885 0.31800
C 	C 	0.03447 0.55206 0.74237 -0.25400
C 	C 	0.05236 0.50668 0.68191 0.15700
C 	C 	0.13508 0.54544 0.61382 0.32100
C 	C 	0.02371 0.40358 0.67038 -0.46800
C 	C 	0.92768 0.40944 0.60263 0.51700
C 	C 	0.21040 0.03960 0.06449 -0.14900
C 	C 	0.09125 0.13190 0.06757 0.09300
C 	C 	0.06380 0.12680 0.94671 0.10000
C 	C 	0.18217 0.03286 0.93999 -0.14600
C 	C 	0.25811 0.98578 0.99966 0.06300
C 	C 	0.38956 0.88628 0.99394 0.05800
C 	C 	0.49236 0.84668 0.04813 -0.13100
C 	C 	0.61680 0.75480 0.03931 0.08600
C 	C 	0.54141 0.73158 0.92908 0.09300
C 	C 	0.41646 0.82488 0.93356 -0.15500
N 	N 	0.19409 0.82328 0.50910 -0.27600
N 	N 	0.33767 0.30248 0.47995 -0.24400
N 	N 	0.98263 0.82328 0.99090 -0.27500
N 	N 	0.35985 0.30248 0.02005 -0.24500
N 	N 	0.80591 0.17672 0.49090 -0.27600
N 	N 	0.66233 0.69752 0.52005 -0.24400
N 	N 	0.01737 0.17672 0.00910 -0.27500
N 	N 	0.64015 0.69752 0.97995 -0.24500
O 	O 	0.45156 0.58868 0.32822 -0.25900
O 	O 	0.50173 0.41118 0.36589 -0.41200
O 	O 	0.74782 0.35804 0.10537 -0.46700
O 	O 	0.70480 0.52102 0.07316 -0.45000
O 	O 	0.33650 0.50780 0.08071 -0.50300
O 	O 	0.26562 0.67644 0.07330 -0.51000
O 	O 	0.41104 0.59334 0.47435 -0.63900
O 	O 	0.95976 0.58868 0.17178 -0.25700
O 	O 	0.08709 0.41118 0.13411 -0.41200
O 	O 	0.89414 0.35804 0.39463 -0.46700
O 	O 	0.77418 0.52102 0.42684 -0.45100
O 	O 	0.15570 0.50780 0.41929 -0.50300
O 	O 	0.05794 0.67644 0.42670 -0.50900
O 	O 	0.99562 0.59334 0.02565 -0.63700
O 	O 	0.54844 0.41132 0.67178 -0.25900
O 	O 	0.49827 0.58882 0.63411 -0.41200
O 	O 	0.25218 0.64196 0.89463 -0.46700
O 	O 	0.29520 0.47898 0.92684 -0.45000
O 	O 	0.66350 0.49220 0.91929 -0.50300
O 	O 	0.73438 0.32356 0.92670 -0.51000
O 	O 	0.58896 0.40666 0.52565 -0.63900
O 	O 	0.04024 0.41132 0.82822 -0.25700
O 	O 	0.91291 0.58882 0.86589 -0.41200
O 	O 	0.10586 0.64196 0.60537 -0.46700
O 	O 	0.22582 0.47898 0.57316 -0.45100
O 	O 	0.84430 0.49220 0.58071 -0.50300
O 	O 	0.94206 0.32356 0.57330 -0.50900
O 	O 	0.00438 0.40666 0.97435 -0.63700
