data_crystal

_cell_length_a 12.45300
_cell_length_b 18.16700
_cell_length_c 26.66800
_cell_angle_alpha 90.00000
_cell_angle_beta  90.00000
_cell_angle_gamma 90.00000

_symmetry_space_group_name_	'P 1'
_symmetry_space_group_name_H-M	'P 1'

loop_
_symmetry_equiv_pos_as_xyz
  x,y,z

loop_
_atom_site_label
_atom_site_type_symbol
_atom_site_fract_x
_atom_site_fract_y
_atom_site_fract_z
_atom_site_charge
Zn	Zn	0.41939 0.54009 0.26960 1.21000
Zn	Zn	0.41939 0.45991 0.73040 1.21000
Zn	Zn	0.58061 0.95991 0.76960 1.20800
Zn	Zn	0.58061 0.04009 0.23040 1.20800
Zn	Zn	0.11658 0.25649 0.53572 1.20900
Zn	Zn	0.11658 0.74351 0.46428 1.20900
Zn	Zn	0.88342 0.24351 0.03572 1.20900
Zn	Zn	0.88342 0.75649 0.96428 1.20900
H 	H 	0.93910 0.31020 0.45120 0.02000
H 	H 	0.93910 0.68980 0.54880 0.02000
H 	H 	0.06090 0.18980 0.95120 0.02000
H 	H 	0.06090 0.81020 0.04880 0.02000
H 	H 	0.86050 0.22510 0.38850 0.03500
H 	H 	0.86050 0.77490 0.61150 0.03500
H 	H 	0.13950 0.27490 0.88850 0.03500
H 	H 	0.13950 0.72510 0.11150 0.03500
H 	H 	0.05360 0.11400 0.48080 -0.01000
H 	H 	0.05360 0.88600 0.51920 -0.01000
H 	H 	0.94640 0.38600 0.98080 -0.01000
H 	H 	0.94640 0.61400 0.01920 -0.01000
H 	H 	0.86220 0.11380 0.33870 0.08500
H 	H 	0.86220 0.88620 0.66130 0.08500
H 	H 	0.13780 0.38620 0.83870 0.08500
H 	H 	0.13780 0.61380 0.16130 0.08500
H 	H 	0.81890 0.00020 0.30570 0.03200
H 	H 	0.81890 0.99980 0.69430 0.03200
H 	H 	0.18110 0.49980 0.80570 0.03100
H 	H 	0.18110 0.50020 0.19430 0.03100
H 	H 	0.94190 0.90140 0.42530 0.02900
H 	H 	0.94190 0.09860 0.57470 0.02900
H 	H 	0.05810 0.59860 0.92530 0.02900
H 	H 	0.05810 0.40140 0.07470 0.02900
H 	H 	0.99080 0.01400 0.45660 0.07500
H 	H 	0.99080 0.98600 0.54340 0.07500
H 	H 	0.00920 0.48600 0.95660 0.07400
H 	H 	0.00920 0.51400 0.04340 0.07400
H 	H 	0.73820 0.89990 0.28900 0.03000
H 	H 	0.73820 0.10010 0.71100 0.03000
H 	H 	0.26180 0.60010 0.78900 0.03000
H 	H 	0.26180 0.39990 0.21100 0.03000
H 	H 	0.65870 0.78540 0.27260 0.08500
H 	H 	0.65870 0.21460 0.72740 0.08500
H 	H 	0.34130 0.71460 0.77260 0.08500
H 	H 	0.34130 0.28540 0.22740 0.08500
H 	H 	0.84610 0.69100 0.37400 0.08600
H 	H 	0.84610 0.30900 0.62600 0.08600
H 	H 	0.15390 0.80900 0.87400 0.08600
H 	H 	0.15390 0.19100 0.12600 0.08600
H 	H 	0.91820 0.80340 0.39300 0.02400
H 	H 	0.91820 0.19660 0.60700 0.02400
H 	H 	0.08180 0.69660 0.89300 0.02400
H 	H 	0.08180 0.30340 0.10700 0.02400
H 	H 	0.54300 0.69110 0.28630 -0.00600
H 	H 	0.54300 0.30890 0.71370 -0.00600
H 	H 	0.45700 0.80890 0.78630 -0.00600
H 	H 	0.45700 0.19110 0.21370 -0.00600
H 	H 	0.64290 0.49060 0.32050 0.03100
H 	H 	0.64290 0.50940 0.67950 0.03100
H 	H 	0.35710 0.00940 0.82050 0.03200
H 	H 	0.35710 0.99060 0.17950 0.03200
H 	H 	0.78570 0.57710 0.34520 0.03300
H 	H 	0.78570 0.42290 0.65480 0.03300
H 	H 	0.21430 0.92290 0.84520 0.03300
H 	H 	0.21430 0.07710 0.15480 0.03300
H 	H 	0.19200 0.38060 0.33080 0.00800
H 	H 	0.19200 0.61940 0.66920 0.00800
H 	H 	0.80800 0.11940 0.83080 0.00900
H 	H 	0.80800 0.88060 0.16920 0.00900
H 	H 	0.09610 0.27040 0.33600 0.12800
H 	H 	0.09610 0.72960 0.66400 0.12800
H 	H 	0.90390 0.22960 0.83600 0.12800
H 	H 	0.90390 0.77040 0.16400 0.12800
H 	H 	0.37100 0.15410 0.32660 0.12600
H 	H 	0.37100 0.84590 0.67340 0.12600
H 	H 	0.62900 0.34590 0.82660 0.12600
H 	H 	0.62900 0.65410 0.17340 0.12600
H 	H 	0.46870 0.26440 0.32740 0.01600
H 	H 	0.46870 0.73560 0.67260 0.01600
H 	H 	0.53130 0.23560 0.82740 0.01600
H 	H 	0.53130 0.76440 0.17260 0.01600
H 	H 	0.12960 0.00980 0.29480 0.12900
H 	H 	0.12960 0.99020 0.70520 0.12900
H 	H 	0.87040 0.49020 0.79480 0.12900
H 	H 	0.87040 0.50980 0.20520 0.12900
H 	H 	0.14360 0.90110 0.33990 0.00700
H 	H 	0.14360 0.09890 0.66010 0.00700
H 	H 	0.85640 0.59890 0.83990 0.00700
H 	H 	0.85640 0.40110 0.16010 0.00700
H 	H 	0.26730 0.01220 0.45730 0.01000
H 	H 	0.26730 0.98780 0.54270 0.01000
H 	H 	0.73270 0.48780 0.95730 0.01000
H 	H 	0.73270 0.51220 0.04270 0.01000
H 	H 	0.25830 0.12160 0.41290 0.12400
H 	H 	0.25830 0.87840 0.58710 0.12400
H 	H 	0.74170 0.37840 0.91290 0.12400
H 	H 	0.74170 0.62160 0.08710 0.12400
H 	H 	0.95490 0.12050 0.16690 0.00400
H 	H 	0.95490 0.87950 0.83310 0.00400
H 	H 	0.04510 0.37950 0.66690 0.00500
H 	H 	0.04510 0.62050 0.33310 0.00500
H 	H 	0.97260 0.03260 0.23040 0.12900
H 	H 	0.97260 0.96740 0.76960 0.12900
H 	H 	0.02740 0.46740 0.73040 0.12800
H 	H 	0.02740 0.53260 0.26960 0.12800
H 	H 	0.07910 0.88610 0.12710 0.11900
H 	H 	0.07910 0.11390 0.87290 0.11900
H 	H 	0.92090 0.61390 0.62710 0.11800
H 	H 	0.92090 0.38610 0.37290 0.11800
H 	H 	0.04990 0.97380 0.06420 0.01300
H 	H 	0.04990 0.02620 0.93580 0.01300
H 	H 	0.95010 0.52620 0.56420 0.01300
H 	H 	0.95010 0.47380 0.43580 0.01300
H 	H 	0.22840 0.89770 0.19370 0.12700
H 	H 	0.22840 0.10230 0.80630 0.12700
H 	H 	0.77160 0.60230 0.69370 0.12700
H 	H 	0.77160 0.39770 0.30630 0.12700
H 	H 	0.34750 0.79990 0.19730 0.01000
H 	H 	0.34750 0.20010 0.80270 0.01000
H 	H 	0.65250 0.70010 0.69730 0.01000
H 	H 	0.65250 0.29990 0.30270 0.01000
H 	H 	0.12080 0.67380 0.26050 0.00100
H 	H 	0.12080 0.32620 0.73950 0.00100
H 	H 	0.87920 0.82620 0.76050 0.00100
H 	H 	0.87920 0.17380 0.23950 0.00100
H 	H 	0.99760 0.77120 0.25680 0.13400
H 	H 	0.99760 0.22880 0.74320 0.13400
H 	H 	0.00240 0.72880 0.75680 0.13300
H 	H 	0.00240 0.27120 0.24320 0.13300
H 	H 	0.64290 0.72810 0.01270 0.03300
H 	H 	0.64290 0.27190 0.98730 0.03300
H 	H 	0.35710 0.77190 0.51270 0.03300
H 	H 	0.35710 0.22810 0.48730 0.03300
H 	H 	0.54430 0.82610 0.05650 0.03300
H 	H 	0.54430 0.17390 0.94350 0.03300
H 	H 	0.45570 0.67390 0.55650 0.03300
H 	H 	0.45570 0.32610 0.44350 0.03300
H 	H 	0.82960 0.90580 0.01420 -0.00200
H 	H 	0.82960 0.09420 0.98580 -0.00200
H 	H 	0.17040 0.59420 0.51420 -0.00300
H 	H 	0.17040 0.40580 0.48580 -0.00300
H 	H 	0.80570 0.98490 0.08580 0.08000
H 	H 	0.80570 0.01510 0.91420 0.08000
H 	H 	0.19430 0.51510 0.58580 0.07900
H 	H 	0.19430 0.48490 0.41420 0.07900
H 	H 	0.77170 0.10590 0.11160 0.03700
H 	H 	0.77170 0.89410 0.88840 0.03700
H 	H 	0.22830 0.39410 0.61160 0.03800
H 	H 	0.22830 0.60590 0.38840 0.03800
H 	H 	0.46000 0.07820 0.07430 0.03600
H 	H 	0.46000 0.92180 0.92570 0.03600
H 	H 	0.54000 0.42180 0.57430 0.03600
H 	H 	0.54000 0.57820 0.42570 0.03600
H 	H 	0.49370 0.95990 0.04980 0.07500
H 	H 	0.49370 0.04010 0.95020 0.07500
H 	H 	0.50630 0.54010 0.54980 0.07400
H 	H 	0.50630 0.45990 0.45020 0.07400
H 	H 	0.71740 0.19570 0.15710 0.04500
H 	H 	0.71740 0.80430 0.84290 0.04500
H 	H 	0.28260 0.30430 0.65710 0.04500
H 	H 	0.28260 0.69570 0.34290 0.04500
H 	H 	0.68110 0.31740 0.18140 0.07600
H 	H 	0.68110 0.68260 0.81860 0.07600
H 	H 	0.31890 0.18260 0.68140 0.07600
H 	H 	0.31890 0.81740 0.31860 0.07600
H 	H 	0.42270 0.31920 0.09060 0.07600
H 	H 	0.42270 0.68080 0.90940 0.07600
H 	H 	0.57730 0.18080 0.59060 0.07600
H 	H 	0.57730 0.81920 0.40940 0.07600
H 	H 	0.45990 0.19880 0.06590 0.03600
H 	H 	0.45990 0.80120 0.93410 0.03600
H 	H 	0.54010 0.30120 0.56590 0.03600
H 	H 	0.54010 0.69880 0.43410 0.03600
H 	H 	0.48730 0.46030 0.09070 0.03300
H 	H 	0.48730 0.53970 0.90930 0.03300
H 	H 	0.51270 0.03970 0.59070 0.03300
H 	H 	0.51270 0.96030 0.40930 0.03300
H 	H 	0.44350 0.56150 0.14620 0.02900
H 	H 	0.44350 0.43850 0.85380 0.02900
H 	H 	0.55650 0.93850 0.64620 0.03000
H 	H 	0.55650 0.06150 0.35380 0.03000
H 	H 	0.52360 0.39260 0.23040 -0.00500
H 	H 	0.52360 0.60740 0.76960 -0.00500
H 	H 	0.47640 0.10740 0.73040 -0.00500
H 	H 	0.47640 0.89260 0.26960 -0.00500
C 	C 	0.95200 0.25880 0.44960 0.01900
C 	C 	0.95200 0.74120 0.55040 0.01900
C 	C 	0.04800 0.24120 0.94960 0.01900
C 	C 	0.04800 0.75880 0.05040 0.01900
C 	C 	0.90860 0.21250 0.41470 -0.00300
C 	C 	0.90860 0.78750 0.58530 -0.00300
C 	C 	0.09140 0.28750 0.91470 -0.00300
C 	C 	0.09140 0.71250 0.08530 -0.00300
C 	C 	0.01380 0.15260 0.46560 0.09100
C 	C 	0.01380 0.84740 0.53440 0.09100
C 	C 	0.98620 0.34740 0.96560 0.09100
C 	C 	0.98620 0.65260 0.03440 0.09100
C 	C 	0.92360 0.07490 0.40170 0.13300
C 	C 	0.92360 0.92510 0.59830 0.13300
C 	C 	0.07640 0.42510 0.90170 0.13300
C 	C 	0.07640 0.57490 0.09830 0.13300
C 	C 	0.87720 0.07040 0.35730 -0.13100
C 	C 	0.87720 0.92960 0.64270 -0.13100
C 	C 	0.12280 0.42960 0.85730 -0.13100
C 	C 	0.12280 0.57040 0.14270 -0.13100
C 	C 	0.85050 0.00220 0.33810 -0.00100
C 	C 	0.85050 0.99780 0.66190 -0.00100
C 	C 	0.14950 0.49780 0.83810 -0.00000
C 	C 	0.14950 0.50220 0.16190 -0.00000
C 	C 	0.86690 0.93810 0.36270 -0.00800
C 	C 	0.86690 0.06190 0.63730 -0.00800
C 	C 	0.13310 0.56190 0.86270 -0.00800
C 	C 	0.13310 0.43810 0.13730 -0.00800
C 	C 	0.92290 0.94460 0.40730 0.00100
C 	C 	0.92290 0.05540 0.59270 0.00100
C 	C 	0.07710 0.55540 0.90730 0.00100
C 	C 	0.07710 0.44460 0.09270 0.00100
C 	C 	0.95130 0.01140 0.42610 -0.12300
C 	C 	0.95130 0.98860 0.57390 -0.12300
C 	C 	0.04870 0.48860 0.92610 -0.12300
C 	C 	0.04870 0.51140 0.07390 -0.12300
C 	C 	0.83190 0.86390 0.34600 -0.01400
C 	C 	0.83190 0.13610 0.65400 -0.01400
C 	C 	0.16810 0.63610 0.84600 -0.01400
C 	C 	0.16810 0.36390 0.15400 -0.01400
C 	C 	0.75820 0.85790 0.30810 0.00400
C 	C 	0.75820 0.14210 0.69190 0.00400
C 	C 	0.24180 0.64210 0.80810 0.00400
C 	C 	0.24180 0.35790 0.19190 0.00400
C 	C 	0.71240 0.78890 0.29780 -0.13100
C 	C 	0.71240 0.21110 0.70220 -0.13100
C 	C 	0.28760 0.71110 0.79780 -0.13100
C 	C 	0.28760 0.28890 0.20220 -0.13100
C 	C 	0.74220 0.72800 0.32230 0.13600
C 	C 	0.74220 0.27200 0.67770 0.13600
C 	C 	0.25780 0.77200 0.82230 0.13600
C 	C 	0.25780 0.22800 0.17770 0.13600
C 	C 	0.82070 0.73370 0.35720 -0.13700
C 	C 	0.82070 0.26630 0.64280 -0.13700
C 	C 	0.17930 0.76630 0.85720 -0.13700
C 	C 	0.17930 0.23370 0.14280 -0.13700
C 	C 	0.86340 0.80090 0.36830 0.01000
C 	C 	0.86340 0.19910 0.63170 0.01000
C 	C 	0.13660 0.69910 0.86830 0.01000
C 	C 	0.13660 0.30090 0.13170 0.01000
C 	C 	0.58660 0.65120 0.29710 0.10600
C 	C 	0.58660 0.34880 0.70290 0.10600
C 	C 	0.41340 0.84880 0.79710 0.10600
C 	C 	0.41340 0.15120 0.20290 0.10600
C 	C 	0.64080 0.54250 0.31670 -0.00600
C 	C 	0.64080 0.45750 0.68330 -0.00600
C 	C 	0.35920 0.95750 0.81670 -0.00700
C 	C 	0.35920 0.04250 0.18330 -0.00700
C 	C 	0.72000 0.58940 0.32910 0.01000
C 	C 	0.72000 0.41060 0.67090 0.01000
C 	C 	0.28000 0.91060 0.82910 0.01100
C 	C 	0.28000 0.08940 0.17090 0.01100
C 	C 	0.40380 0.40220 0.31800 0.34600
C 	C 	0.40380 0.59780 0.68200 0.34600
C 	C 	0.59620 0.09780 0.81800 0.34600
C 	C 	0.59620 0.90220 0.18200 0.34600
C 	C 	0.33980 0.33260 0.32760 -0.16600
C 	C 	0.33980 0.66740 0.67240 -0.16600
C 	C 	0.66020 0.16740 0.82760 -0.16600
C 	C 	0.66020 0.83260 0.17240 -0.16600
C 	C 	0.22870 0.33480 0.33040 0.12900
C 	C 	0.22870 0.66520 0.66960 0.12900
C 	C 	0.77130 0.16520 0.83040 0.12900
C 	C 	0.77130 0.83480 0.16960 0.12900
C 	C 	0.17190 0.26970 0.33240 -0.24600
C 	C 	0.17190 0.73030 0.66760 -0.24600
C 	C 	0.82810 0.23030 0.83240 -0.24600
C 	C 	0.82810 0.76970 0.16760 -0.24600
C 	C 	0.22590 0.20320 0.32930 0.27700
C 	C 	0.22590 0.79680 0.67070 0.27700
C 	C 	0.77410 0.29680 0.82930 0.27700
C 	C 	0.77410 0.70320 0.17070 0.27700
C 	C 	0.33490 0.20010 0.32770 -0.25500
C 	C 	0.33490 0.79990 0.67230 -0.25500
C 	C 	0.66510 0.29990 0.82770 -0.25500
C 	C 	0.66510 0.70010 0.17230 -0.25500
C 	C 	0.39240 0.26560 0.32750 0.12200
C 	C 	0.39240 0.73440 0.67250 0.12200
C 	C 	0.60760 0.23440 0.82750 0.12200
C 	C 	0.60760 0.76560 0.17250 0.12200
C 	C 	0.18670 0.07690 0.35070 0.26700
C 	C 	0.18670 0.92310 0.64930 0.26700
C 	C 	0.81330 0.42310 0.85070 0.26700
C 	C 	0.81330 0.57690 0.14930 0.26700
C 	C 	0.15630 0.01040 0.32820 -0.23800
C 	C 	0.15630 0.98960 0.67180 -0.23800
C 	C 	0.84370 0.48960 0.82820 -0.23700
C 	C 	0.84370 0.51040 0.17180 -0.23700
C 	C 	0.16550 0.94620 0.35480 0.13200
C 	C 	0.16550 0.05380 0.64520 0.13200
C 	C 	0.83450 0.55380 0.85480 0.13100
C 	C 	0.83450 0.44620 0.14520 0.13100
C 	C 	0.20660 0.94600 0.40370 -0.17600
C 	C 	0.20660 0.05400 0.59630 -0.17600
C 	C 	0.79340 0.55400 0.90370 -0.17600
C 	C 	0.79340 0.44600 0.09630 -0.17600
C 	C 	0.23920 0.01190 0.42420 0.13200
C 	C 	0.23920 0.98810 0.57580 0.13200
C 	C 	0.76080 0.48810 0.92420 0.13300
C 	C 	0.76080 0.51190 0.07580 0.13300
C 	C 	0.23240 0.07720 0.39850 -0.24700
C 	C 	0.23240 0.92280 0.60150 -0.24700
C 	C 	0.76760 0.42280 0.89850 -0.24700
C 	C 	0.76760 0.57720 0.10150 -0.24700
C 	C 	0.20310 0.87720 0.43570 0.37800
C 	C 	0.20310 0.12280 0.56430 0.37800
C 	C 	0.79690 0.62280 0.93570 0.37800
C 	C 	0.79690 0.37720 0.06430 0.37800
C 	C 	0.98590 0.11180 0.06830 0.36000
C 	C 	0.98590 0.88820 0.93170 0.36000
C 	C 	0.01410 0.38820 0.56830 0.35900
C 	C 	0.01410 0.61180 0.43170 0.35900
C 	C 	0.00220 0.05580 0.10970 -0.18100
C 	C 	0.00220 0.94420 0.89030 -0.18100
C 	C 	0.99780 0.44420 0.60970 -0.17700
C 	C 	0.99780 0.55580 0.39030 -0.17700
C 	C 	0.97910 0.07240 0.15870 0.12900
C 	C 	0.97910 0.92760 0.84130 0.12900
C 	C 	0.02090 0.42760 0.65870 0.12700
C 	C 	0.02090 0.57240 0.34130 0.12700
C 	C 	0.99020 0.02050 0.19670 -0.24300
C 	C 	0.99020 0.97950 0.80330 -0.24300
C 	C 	0.00980 0.47950 0.69670 -0.24100
C 	C 	0.00980 0.52050 0.30330 -0.24100
C 	C 	0.02760 0.95050 0.18450 0.27600
C 	C 	0.02760 0.04950 0.81550 0.27600
C 	C 	0.97240 0.54950 0.68450 0.27400
C 	C 	0.97240 0.45050 0.31550 0.27400
C 	C 	0.05200 0.93340 0.13550 -0.25700
C 	C 	0.05200 0.06660 0.86450 -0.25700
C 	C 	0.94800 0.56660 0.63550 -0.25500
C 	C 	0.94800 0.43340 0.36450 -0.25500
C 	C 	0.03640 0.98630 0.09820 0.12600
C 	C 	0.03640 0.01370 0.90180 0.12600
C 	C 	0.96360 0.51370 0.59820 0.12300
C 	C 	0.96360 0.48630 0.40180 0.12300
C 	C 	0.10300 0.84350 0.22320 0.28000
C 	C 	0.10300 0.15650 0.77680 0.28000
C 	C 	0.89700 0.65650 0.72320 0.27900
C 	C 	0.89700 0.34350 0.27680 0.27900
C 	C 	0.20550 0.85170 0.20690 -0.27000
C 	C 	0.20550 0.14830 0.79310 -0.27000
C 	C 	0.79450 0.64830 0.70690 -0.26900
C 	C 	0.79450 0.35170 0.29310 -0.26900
C 	C 	0.27640 0.79380 0.20950 0.13400
C 	C 	0.27640 0.20620 0.79050 0.13400
C 	C 	0.72360 0.70620 0.70950 0.13300
C 	C 	0.72360 0.29380 0.29050 0.13300
C 	C 	0.24550 0.72580 0.22980 -0.18300
C 	C 	0.24550 0.27420 0.77020 -0.18300
C 	C 	0.75450 0.77420 0.72980 -0.18200
C 	C 	0.75450 0.22580 0.27020 -0.18200
C 	C 	0.14300 0.71950 0.24660 0.13400
C 	C 	0.14300 0.28050 0.75340 0.13400
C 	C 	0.85700 0.78050 0.74660 0.13300
C 	C 	0.85700 0.21950 0.25340 0.13300
C 	C 	0.06870 0.77700 0.24440 -0.24900
C 	C 	0.06870 0.22300 0.75560 -0.24900
C 	C 	0.93130 0.72300 0.74440 -0.24800
C 	C 	0.93130 0.27700 0.25560 -0.24800
C 	C 	0.32550 0.66350 0.23400 0.35900
C 	C 	0.32550 0.33650 0.76600 0.35900
C 	C 	0.67450 0.83650 0.73400 0.35900
C 	C 	0.67450 0.16350 0.26600 0.35900
C 	C 	0.66750 0.77690 0.01840 -0.00400
C 	C 	0.66750 0.22310 0.98160 -0.00400
C 	C 	0.33250 0.72310 0.51840 -0.00400
C 	C 	0.33250 0.27690 0.48160 -0.00400
C 	C 	0.61430 0.83010 0.04260 0.01500
C 	C 	0.61430 0.16990 0.95740 0.01500
C 	C 	0.38570 0.66990 0.54260 0.01500
C 	C 	0.38570 0.33010 0.45740 0.01500
C 	C 	0.77040 0.87360 0.01910 0.09400
C 	C 	0.77040 0.12640 0.98090 0.09400
C 	C 	0.22960 0.62640 0.51910 0.09400
C 	C 	0.22960 0.37360 0.48090 0.09400
C 	C 	0.65520 0.96260 0.06360 0.12000
C 	C 	0.65520 0.03740 0.93640 0.12000
C 	C 	0.34480 0.53740 0.56360 0.11800
C 	C 	0.34480 0.46260 0.43640 0.11800
C 	C 	0.73530 0.00470 0.08290 -0.11300
C 	C 	0.73530 0.99530 0.91710 -0.11300
C 	C 	0.26470 0.49530 0.58290 -0.10900
C 	C 	0.26470 0.50470 0.41710 -0.10900
C 	C 	0.71490 0.07670 0.09850 -0.02300
C 	C 	0.71490 0.92330 0.90150 -0.02300
C 	C 	0.28510 0.42330 0.59850 -0.02400
C 	C 	0.28510 0.57670 0.40150 -0.02400
C 	C 	0.61210 0.10610 0.09510 -0.02100
C 	C 	0.61210 0.89390 0.90490 -0.02100
C 	C 	0.38790 0.39390 0.59510 -0.02000
C 	C 	0.38790 0.60610 0.40490 -0.02000
C 	C 	0.53120 0.05980 0.07650 -0.01400
C 	C 	0.53120 0.94020 0.92350 -0.01400
C 	C 	0.46880 0.44020 0.57650 -0.01400
C 	C 	0.46880 0.55980 0.42350 -0.01400
C 	C 	0.55070 0.99010 0.06160 -0.11000
C 	C 	0.55070 0.00990 0.93840 -0.11000
C 	C 	0.44930 0.50990 0.56160 -0.11100
C 	C 	0.44930 0.49010 0.43840 -0.11100
C 	C 	0.59080 0.18330 0.11010 -0.01200
C 	C 	0.59080 0.81670 0.88990 -0.01200
C 	C 	0.40920 0.31670 0.61010 -0.01200
C 	C 	0.40920 0.68330 0.38990 -0.01200
C 	C 	0.65650 0.22020 0.14370 -0.03700
C 	C 	0.65650 0.77980 0.85630 -0.03700
C 	C 	0.34350 0.27980 0.64370 -0.03700
C 	C 	0.34350 0.72020 0.35630 -0.03700
C 	C 	0.63520 0.29280 0.15840 -0.10300
C 	C 	0.63520 0.70720 0.84160 -0.10300
C 	C 	0.36480 0.20720 0.65840 -0.10300
C 	C 	0.36480 0.79280 0.34160 -0.10300
C 	C 	0.54550 0.32820 0.13860 0.11300
C 	C 	0.54550 0.67180 0.86140 0.11300
C 	C 	0.45450 0.17180 0.63860 0.11300
C 	C 	0.45450 0.82820 0.36140 0.11300
C 	C 	0.48240 0.29400 0.10460 -0.11500
C 	C 	0.48240 0.70600 0.89540 -0.11500
C 	C 	0.51760 0.20600 0.60460 -0.11500
C 	C 	0.51760 0.79400 0.39540 -0.11500
C 	C 	0.50460 0.22200 0.09010 -0.01400
C 	C 	0.50460 0.77800 0.90990 -0.01400
C 	C 	0.49540 0.27800 0.59010 -0.01400
C 	C 	0.49540 0.72200 0.40990 -0.01400
C 	C 	0.48910 0.45900 0.12630 0.01200
C 	C 	0.48910 0.54100 0.87370 0.01200
C 	C 	0.51090 0.04100 0.62630 0.01300
C 	C 	0.51090 0.95900 0.37370 0.01300
C 	C 	0.46350 0.51340 0.15660 0.00000
C 	C 	0.46350 0.48660 0.84340 0.00000
C 	C 	0.53650 0.98660 0.65660 -0.00100
C 	C 	0.53650 0.01340 0.34340 -0.00100
C 	C 	0.50700 0.42250 0.20230 0.09900
C 	C 	0.50700 0.57750 0.79770 0.09900
C 	C 	0.49300 0.07750 0.70230 0.09900
C 	C 	0.49300 0.92250 0.29770 0.09900
N 	N 	0.01490 0.22170 0.48090 -0.26300
N 	N 	0.01490 0.77830 0.51910 -0.26300
N 	N 	0.98510 0.27830 0.98090 -0.26300
N 	N 	0.98510 0.72170 0.01910 -0.26300
N 	N 	0.94880 0.14420 0.42550 -0.13800
N 	N 	0.94880 0.85580 0.57450 -0.13800
N 	N 	0.05120 0.35580 0.92550 -0.13800
N 	N 	0.05120 0.64420 0.07450 -0.13800
N 	N 	0.68780 0.65870 0.31410 -0.14300
N 	N 	0.68780 0.34130 0.68590 -0.14300
N 	N 	0.31220 0.84130 0.81410 -0.14300
N 	N 	0.31220 0.15870 0.18590 -0.14300
N 	N 	0.55570 0.58250 0.29740 -0.26600
N 	N 	0.55570 0.41750 0.70260 -0.26600
N 	N 	0.44430 0.91750 0.79740 -0.26500
N 	N 	0.44430 0.08250 0.20260 -0.26500
N 	N 	0.76500 0.80590 0.00306 -0.26200
N 	N 	0.76500 0.19410 0.99694 -0.26200
N 	N 	0.23500 0.69410 0.50306 -0.26200
N 	N 	0.23500 0.30590 0.49694 -0.26200
N 	N 	0.67850 0.89110 0.04391 -0.13800
N 	N 	0.67850 0.10890 0.95609 -0.13800
N 	N 	0.32150 0.60890 0.54391 -0.13800
N 	N 	0.32150 0.39110 0.45609 -0.13800
N 	N 	0.51830 0.40120 0.15488 -0.14200
N 	N 	0.51830 0.59880 0.84512 -0.14200
N 	N 	0.48170 0.09880 0.65488 -0.14200
N 	N 	0.48170 0.90120 0.34512 -0.14200
N 	N 	0.47010 0.49010 0.20540 -0.25800
N 	N 	0.47010 0.50990 0.79460 -0.25800
N 	N 	0.52990 0.00990 0.70540 -0.25700
N 	N 	0.52990 0.99010 0.29460 -0.25700
O 	O 	0.35040 0.45820 0.30398 -0.45800
O 	O 	0.35040 0.54180 0.69602 -0.45800
O 	O 	0.64960 0.04180 0.80398 -0.45700
O 	O 	0.64960 0.95820 0.19602 -0.45700
O 	O 	0.50510 0.39950 0.32200 -0.30200
O 	O 	0.50510 0.60050 0.67800 -0.30200
O 	O 	0.49490 0.10050 0.82200 -0.30200
O 	O 	0.49490 0.89950 0.17800 -0.30200
O 	O 	0.16060 0.14090 0.32490 -0.29600
O 	O 	0.16060 0.85910 0.67510 -0.29600
O 	O 	0.83940 0.35910 0.82490 -0.29500
O 	O 	0.83940 0.64090 0.17510 -0.29500
O 	O 	0.14220 0.82540 0.41943 -0.46800
O 	O 	0.14220 0.17460 0.58057 -0.46800
O 	O 	0.85780 0.67460 0.91943 -0.46800
O 	O 	0.85780 0.32540 0.08057 -0.46800
O 	O 	0.24510 0.87730 0.47619 -0.33800
O 	O 	0.24510 0.12270 0.52381 -0.33800
O 	O 	0.75490 0.62270 0.97619 -0.33800
O 	O 	0.75490 0.37730 0.02381 -0.33800
O 	O 	0.94550 0.17320 0.08307 -0.46300
O 	O 	0.94550 0.82680 0.91693 -0.46300
O 	O 	0.05450 0.32680 0.58307 -0.46200
O 	O 	0.05450 0.67320 0.41693 -0.46200
O 	O 	0.00730 0.09720 0.02463 -0.31200
O 	O 	0.00730 0.90280 0.97537 -0.31200
O 	O 	0.99270 0.40280 0.52463 -0.31000
O 	O 	0.99270 0.59720 0.47537 -0.31000
O 	O 	0.02940 0.90110 0.22365 -0.30600
O 	O 	0.02940 0.09890 0.77635 -0.30600
O 	O 	0.97060 0.59890 0.72365 -0.30500
O 	O 	0.97060 0.40110 0.27635 -0.30500
O 	O 	0.29760 0.60770 0.26011 -0.45900
O 	O 	0.29760 0.39230 0.73989 -0.45900
O 	O 	0.70240 0.89230 0.76011 -0.45900
O 	O 	0.70240 0.10770 0.23989 -0.45900
O 	O 	0.41200 0.66950 0.21300 -0.33900
O 	O 	0.41200 0.33050 0.78700 -0.33900
O 	O 	0.58800 0.83050 0.71300 -0.33900
O 	O 	0.58800 0.16950 0.28700 -0.33900
