data_crystal

_cell_length_a 10.33400
_cell_length_b 11.54510
_cell_length_c 28.44690
_cell_angle_alpha 90.00000
_cell_angle_beta  90.00000
_cell_angle_gamma 115.30900

_symmetry_space_group_name_	'P 1'
_symmetry_space_group_name_H-M	'P 1'

loop_
_symmetry_equiv_pos_as_xyz
  x,y,z

loop_
_atom_site_label
_atom_site_type_symbol
_atom_site_fract_x
_atom_site_fract_y
_atom_site_fract_z
_atom_site_charge
Zn	Zn	0.09027 0.00767 0.93767 1.21000
Zn	Zn	0.33054 0.33425 0.52206 1.21500
Zn	Zn	0.90973 0.49233 0.43767 1.21300
Zn	Zn	0.66946 0.16575 0.02206 1.21600
Zn	Zn	0.90973 0.99233 0.06233 1.21100
Zn	Zn	0.66946 0.66575 0.47794 1.21600
Zn	Zn	0.09027 0.50767 0.56233 1.21300
Zn	Zn	0.33054 0.83425 0.97794 1.21600
P 	P 	0.40577 0.12297 0.95489 0.44100
P 	P 	0.06415 0.83037 0.02287 0.44600
P 	P 	0.59423 0.37703 0.45489 0.44300
P 	P 	0.93585 0.66963 0.52287 0.44200
P 	P 	0.59423 0.87703 0.04511 0.44100
P 	P 	0.93585 0.16963 0.97713 0.44600
P 	P 	0.40577 0.62297 0.54511 0.44300
P 	P 	0.06415 0.33037 0.47713 0.44200
H 	H 	0.92920 0.03270 0.85710 -0.02000
H 	H 	0.90670 0.00060 0.77720 0.09800
H 	H 	0.22140 0.88070 0.78280 0.09600
H 	H 	0.23860 0.91920 0.86280 -0.02800
H 	H 	0.94470 0.86330 0.71080 0.09600
H 	H 	0.07480 0.00040 0.70260 0.10000
H 	H 	0.23720 0.90780 0.70080 0.00400
H 	H 	0.11120 0.77000 0.71250 0.00300
H 	H 	0.15160 0.77430 0.63180 0.09700
H 	H 	0.99930 0.77720 0.63860 0.10700
H 	H 	0.96880 0.97020 0.61510 0.10000
H 	H 	0.05380 0.15830 0.57260 -0.02400
H 	H 	0.43220 0.15490 0.56010 -0.01600
H 	H 	0.35890 0.97080 0.60440 0.10400
H 	H 	0.47749 0.19420 0.92060 -0.05000
H 	H 	0.96572 0.72730 0.03454 -0.05500
H 	H 	0.07080 0.46730 0.35710 -0.01800
H 	H 	0.09330 0.49940 0.27720 0.09200
H 	H 	0.77860 0.61930 0.28280 0.09500
H 	H 	0.76140 0.58080 0.36280 -0.02700
H 	H 	0.05530 0.63670 0.21080 0.10500
H 	H 	0.92520 0.49960 0.20260 0.11000
H 	H 	0.76280 0.59220 0.20080 0.00100
H 	H 	0.88880 0.73000 0.21250 -0.00100
H 	H 	0.84840 0.72570 0.13180 0.09700
H 	H 	0.00070 0.72280 0.13860 0.11100
H 	H 	0.03120 0.52980 0.11510 0.09400
H 	H 	0.94620 0.34170 0.07260 -0.02100
H 	H 	0.56780 0.34510 0.06010 -0.01300
H 	H 	0.64110 0.52920 0.10440 0.09700
H 	H 	0.52251 0.30580 0.42060 -0.04900
H 	H 	0.03428 0.77270 0.53454 -0.05100
H 	H 	0.07080 0.96730 0.14290 -0.02000
H 	H 	0.09330 0.99940 0.22280 0.09800
H 	H 	0.77860 0.11930 0.21720 0.09600
H 	H 	0.76140 0.08080 0.13720 -0.02800
H 	H 	0.05530 0.13670 0.28920 0.09600
H 	H 	0.92520 0.99960 0.29740 0.10000
H 	H 	0.76280 0.09220 0.29920 0.00400
H 	H 	0.88880 0.23000 0.28750 0.00300
H 	H 	0.84840 0.22570 0.36820 0.09700
H 	H 	0.00070 0.22280 0.36140 0.10700
H 	H 	0.03120 0.02980 0.38490 0.10000
H 	H 	0.94620 0.84170 0.42740 -0.02400
H 	H 	0.56780 0.84510 0.43990 -0.01600
H 	H 	0.64110 0.02920 0.39560 0.10400
H 	H 	0.52251 0.80580 0.07940 -0.05000
H 	H 	0.03428 0.27270 0.96546 -0.05500
H 	H 	0.92920 0.53270 0.64290 -0.01800
H 	H 	0.90670 0.50060 0.72280 0.09200
H 	H 	0.22140 0.38070 0.71720 0.09500
H 	H 	0.23860 0.41920 0.63720 -0.02700
H 	H 	0.94470 0.36330 0.78920 0.10500
H 	H 	0.07480 0.50040 0.79740 0.11000
H 	H 	0.23720 0.40780 0.79920 0.00100
H 	H 	0.11120 0.27000 0.78750 -0.00100
H 	H 	0.15160 0.27430 0.86820 0.09700
H 	H 	0.99930 0.27720 0.86140 0.11100
H 	H 	0.96880 0.47020 0.88490 0.09400
H 	H 	0.05380 0.65830 0.92740 -0.02100
H 	H 	0.43220 0.65490 0.93990 -0.01300
H 	H 	0.35890 0.47080 0.89560 0.09700
H 	H 	0.47749 0.69420 0.57940 -0.04900
H 	H 	0.96572 0.22730 0.46546 -0.05100
C 	C 	0.98973 0.00183 0.84167 0.10400
C 	C 	0.97549 0.98273 0.79401 -0.21900
C 	C 	0.06254 0.93693 0.77035 0.18000
C 	C 	0.16061 0.91281 0.79732 -0.20600
C 	C 	0.16989 0.93527 0.84513 0.10700
C 	C 	0.04701 0.91621 0.71797 -0.26400
C 	C 	0.13401 0.85226 0.69621 0.07200
C 	C 	0.10369 0.82689 0.64340 -0.27800
C 	C 	0.15454 0.94843 0.61505 0.19400
C 	C 	0.06528 0.00735 0.60452 -0.22100
C 	C 	0.11617 0.11904 0.57888 0.11300
C 	C 	0.33707 0.11744 0.57192 0.10700
C 	C 	0.29369 0.00698 0.59804 -0.21900
C 	C 	0.01027 0.49817 0.34167 0.09600
C 	C 	0.02451 0.51727 0.29401 -0.20500
C 	C 	0.93746 0.56307 0.27035 0.17600
C 	C 	0.83939 0.58719 0.29732 -0.20600
C 	C 	0.83011 0.56473 0.34513 0.10500
C 	C 	0.95299 0.58379 0.21797 -0.28600
C 	C 	0.86599 0.64774 0.19621 0.08200
C 	C 	0.89631 0.67311 0.14340 -0.28400
C 	C 	0.84546 0.55157 0.11505 0.17900
C 	C 	0.93472 0.49265 0.10452 -0.20600
C 	C 	0.88383 0.38096 0.07888 0.10600
C 	C 	0.66293 0.38256 0.07192 0.09900
C 	C 	0.70631 0.49302 0.09804 -0.20200
C 	C 	0.01027 0.99817 0.15833 0.10400
C 	C 	0.02451 0.01727 0.20599 -0.21900
C 	C 	0.93746 0.06307 0.22965 0.18000
C 	C 	0.83939 0.08719 0.20268 -0.20600
C 	C 	0.83011 0.06473 0.15487 0.10700
C 	C 	0.95299 0.08379 0.28203 -0.26400
C 	C 	0.86599 0.14774 0.30379 0.07200
C 	C 	0.89631 0.17311 0.35660 -0.27800
C 	C 	0.84546 0.05157 0.38495 0.19400
C 	C 	0.93472 0.99265 0.39548 -0.22100
C 	C 	0.88383 0.88096 0.42112 0.11300
C 	C 	0.66293 0.88256 0.42808 0.10700
C 	C 	0.70631 0.99302 0.40196 -0.21900
C 	C 	0.98973 0.50183 0.65833 0.09600
C 	C 	0.97549 0.48273 0.70599 -0.20500
C 	C 	0.06254 0.43693 0.72965 0.17600
C 	C 	0.16061 0.41281 0.70268 -0.20600
C 	C 	0.16989 0.43527 0.65487 0.10500
C 	C 	0.04701 0.41621 0.78203 -0.28600
C 	C 	0.13401 0.35226 0.80379 0.08200
C 	C 	0.10369 0.32689 0.85660 -0.28400
C 	C 	0.15454 0.44843 0.88495 0.17900
C 	C 	0.06528 0.50735 0.89548 -0.20600
C 	C 	0.11617 0.61904 0.92112 0.10600
C 	C 	0.33707 0.61744 0.92808 0.09900
C 	C 	0.29369 0.50698 0.90196 -0.20200
N 	N 	0.08539 0.97899 0.86767 -0.28300
N 	N 	0.25098 0.17496 0.56229 -0.28400
N 	N 	0.91461 0.52101 0.36767 -0.28400
N 	N 	0.74902 0.32504 0.06229 -0.28100
N 	N 	0.91461 0.02101 0.13233 -0.28300
N 	N 	0.74902 0.82504 0.43771 -0.28400
N 	N 	0.08539 0.47899 0.63233 -0.28400
N 	N 	0.25098 0.67496 0.93771 -0.28100
O 	O 	0.37110 0.98603 0.94125 -0.50800
O 	O 	0.26972 0.14389 0.95995 -0.44500
O 	O 	0.04390 0.84896 0.97104 -0.50000
O 	O 	0.20411 0.81816 0.03121 -0.44300
O 	O 	0.05671 0.93197 0.05492 -0.46700
O 	O 	0.49728 0.17110 0.99838 -0.46200
O 	O 	0.62890 0.51397 0.44125 -0.51000
O 	O 	0.73028 0.35611 0.45995 -0.44400
O 	O 	0.95610 0.65104 0.47104 -0.50200
O 	O 	0.79589 0.68184 0.53121 -0.44200
O 	O 	0.94329 0.56803 0.55492 -0.46800
O 	O 	0.50272 0.32890 0.49838 -0.46200
O 	O 	0.62890 0.01397 0.05875 -0.50800
O 	O 	0.73028 0.85611 0.04005 -0.44500
O 	O 	0.95610 0.15104 0.02896 -0.50000
O 	O 	0.79589 0.18184 0.96879 -0.44300
O 	O 	0.94329 0.06803 0.94508 -0.46700
O 	O 	0.50272 0.82890 0.00162 -0.46200
O 	O 	0.37110 0.48603 0.55875 -0.51000
O 	O 	0.26972 0.64389 0.54005 -0.44400
O 	O 	0.04390 0.34896 0.52896 -0.50200
O 	O 	0.20411 0.31816 0.46879 -0.44200
O 	O 	0.05671 0.43197 0.44508 -0.46800
O 	O 	0.49728 0.67110 0.50162 -0.46200
