data_crystal

_cell_length_a 10.67300
_cell_length_b 12.10060
_cell_length_c 12.10060
_cell_angle_alpha 83.89350
_cell_angle_beta  75.42920
_cell_angle_gamma 75.42900

_symmetry_space_group_name_	'P 1'
_symmetry_space_group_name_H-M	'P 1'

loop_
_symmetry_equiv_pos_as_xyz
  x,y,z

loop_
_atom_site_label
_atom_site_type_symbol
_atom_site_fract_x
_atom_site_fract_y
_atom_site_fract_z
_atom_site_charge
Zn	Zn	0.25000 0.88612 0.11388 1.22000
Zn	Zn	0.75000 0.11388 0.88612 1.22400
Zn	Zn	-0.00000 0.00000 -0.00000 1.12100
Zn	Zn	0.50000 0.00000 -0.00000 1.13400
H 	H 	0.91080 0.18480 0.18460 -0.03700
H 	H 	0.77360 0.36020 0.21200 0.12500
H 	H 	0.23220 0.32190 0.09270 -0.02400
H 	H 	0.19820 0.53470 0.09910 -0.02100
H 	H 	0.82710 0.73150 0.15710 -0.02700
H 	H 	0.73790 0.57310 0.19870 0.11500
H 	H 	0.58920 0.81540 0.81520 0.03900
H 	H 	0.72640 0.78800 0.63980 0.09100
H 	H 	0.26780 0.90730 0.67810 0.05700
H 	H 	0.30180 0.90090 0.46530 0.06100
H 	H 	0.67290 0.84290 0.26850 0.04300
H 	H 	0.76210 0.80130 0.42690 0.09600
H 	H 	0.08920 0.81520 0.81540 0.07600
H 	H 	0.22640 0.63980 0.78800 0.04800
H 	H 	0.76780 0.67810 0.90730 0.09200
H 	H 	0.80180 0.46530 0.90090 0.09400
H 	H 	0.17290 0.26850 0.84290 0.07600
H 	H 	0.26210 0.42690 0.80130 0.05500
H 	H 	0.41080 0.18460 0.18480 0.01200
H 	H 	0.27360 0.21200 0.36020 0.07000
H 	H 	0.73220 0.09270 0.32190 0.02100
H 	H 	0.69820 0.09910 0.53470 0.02200
H 	H 	0.32710 0.15710 0.73150 0.01900
H 	H 	0.23790 0.19870 0.57310 0.06200
C 	C 	0.17940 0.12050 0.10390 0.42700
C 	C 	0.08870 0.23630 0.13150 -0.28800
C 	C 	0.94670 0.24970 0.17070 0.21300
C 	C 	0.86600 0.35320 0.18760 -0.29800
C 	C 	0.91710 0.45300 0.16960 0.25300
C 	C 	0.05510 0.44200 0.13640 -0.22600
C 	C 	0.13950 0.33030 0.11650 0.13000
C 	C 	0.10570 0.54170 0.11950 0.12200
C 	C 	0.07290 0.75460 0.11200 0.36100
C 	C 	0.02300 0.64680 0.13200 -0.25400
C 	C 	0.88400 0.65810 0.15610 0.19400
C 	C 	0.83070 0.56430 0.17810 -0.28300
C 	C 	0.32060 0.89610 0.87950 0.38800
C 	C 	0.41130 0.86850 0.76370 -0.08500
C 	C 	0.55330 0.82930 0.75030 0.05700
C 	C 	0.63400 0.81240 0.64680 -0.11400
C 	C 	0.58290 0.83040 0.54700 0.10000
C 	C 	0.44490 0.86360 0.55800 -0.01600
C 	C 	0.36050 0.88350 0.66970 0.01600
C 	C 	0.39430 0.88050 0.45830 0.02000
C 	C 	0.42710 0.88800 0.24540 0.39600
C 	C 	0.47700 0.86800 0.35320 -0.09300
C 	C 	0.61600 0.84390 0.34190 0.05900
C 	C 	0.66930 0.82190 0.43570 -0.11300
C 	C 	0.82060 0.87950 0.89610 0.35300
C 	C 	0.91130 0.76370 0.86850 0.01600
C 	C 	0.05330 0.75030 0.82930 -0.07500
C 	C 	0.13400 0.64680 0.81240 -0.00200
C 	C 	0.08290 0.54700 0.83040 -0.03000
C 	C 	0.94490 0.55800 0.86360 0.10600
C 	C 	0.86050 0.66970 0.88350 -0.07500
C 	C 	0.89430 0.45830 0.88050 -0.06700
C 	C 	0.92710 0.24540 0.88800 0.40100
C 	C 	0.97700 0.35320 0.86800 -0.00200
C 	C 	0.11600 0.34190 0.84390 -0.05700
C 	C 	0.16930 0.43570 0.82190 -0.01200
C 	C 	0.67940 0.10390 0.12050 0.38200
C 	C 	0.58870 0.13150 0.23630 -0.15300
C 	C 	0.44670 0.17070 0.24970 0.04000
C 	C 	0.36600 0.18760 0.35320 -0.15000
C 	C 	0.41710 0.16960 0.45300 0.08000
C 	C 	0.55510 0.13640 0.44200 -0.06200
C 	C 	0.63950 0.11650 0.33030 0.01000
C 	C 	0.60570 0.11950 0.54170 0.00700
C 	C 	0.57290 0.11200 0.75460 0.37600
C 	C 	0.52300 0.13200 0.64680 -0.13000
C 	C 	0.38400 0.15610 0.65810 0.03600
C 	C 	0.33070 0.17810 0.56430 -0.14700
O 	O 	0.12030 0.03650 0.11610 -0.68300
O 	O 	0.18780 0.74580 0.12100 -0.50000
O 	O 	0.99240 0.84700 0.09040 -0.41400
O 	O 	0.30070 0.10990 0.07490 -0.54400
O 	O 	0.37970 0.88390 0.96350 -0.44800
O 	O 	0.31220 0.87900 0.25420 -0.45700
O 	O 	0.50760 0.90960 0.15300 -0.44700
O 	O 	0.19930 0.92510 0.89010 -0.36000
O 	O 	0.87970 0.96350 0.88390 -0.43000
O 	O 	0.81220 0.25420 0.87900 -0.45000
O 	O 	0.00760 0.15300 0.90960 -0.47200
O 	O 	0.69930 0.89010 0.92510 -0.34400
O 	O 	0.62030 0.11610 0.03650 -0.65700
O 	O 	0.68780 0.12100 0.74580 -0.49500
O 	O 	0.49240 0.09040 0.84700 -0.45700
O 	O 	0.80070 0.07490 0.10990 -0.51700
