data_crystal

_cell_length_a 11.21700
_cell_length_b 11.52600
_cell_length_c 17.70300
_cell_angle_alpha 90.00000
_cell_angle_beta  90.00000
_cell_angle_gamma 106.91700

_symmetry_space_group_name_	'P 1'
_symmetry_space_group_name_H-M	'P 1'

loop_
_symmetry_equiv_pos_as_xyz
  x,y,z

loop_
_atom_site_label
_atom_site_type_symbol
_atom_site_fract_x
_atom_site_fract_y
_atom_site_fract_z
_atom_site_charge
Zn	Zn	0.45895 0.86465 0.99223 1.21000
Zn	Zn	0.04105 0.13535 0.49223 1.20900
Zn	Zn	0.54105 0.13535 0.00777 1.21100
Zn	Zn	0.95895 0.86465 0.50777 1.21000
H 	H 	0.64830 0.85890 0.63480 0.05700
H 	H 	0.55590 0.84610 0.75380 0.06000
H 	H 	0.70360 0.20550 0.78110 0.06000
H 	H 	0.80510 0.21870 0.66400 0.05800
H 	H 	0.21240 0.70640 0.03540 -0.00700
H 	H 	0.09720 0.50280 0.03910 0.12300
H 	H 	0.38040 0.42430 0.93380 0.12100
H 	H 	0.48540 0.62830 0.93050 -0.00200
H 	H 	0.90260 0.12630 0.84310 0.05500
H 	H 	0.20150 0.08110 0.15180 0.06400
H 	H 	0.85170 0.14110 0.13480 0.05600
H 	H 	0.94410 0.15390 0.25380 0.05900
H 	H 	0.79640 0.79450 0.28110 0.06000
H 	H 	0.69490 0.78130 0.16400 0.05800
H 	H 	0.28760 0.29360 0.53540 -0.00700
H 	H 	0.40280 0.49720 0.53910 0.12300
H 	H 	0.11960 0.57570 0.43380 0.12100
H 	H 	0.01460 0.37170 0.43050 -0.00300
H 	H 	0.59740 0.87370 0.34310 0.05900
H 	H 	0.29850 0.91890 0.65180 0.06100
H 	H 	0.35170 0.14110 0.36520 0.05700
H 	H 	0.44410 0.15390 0.24620 0.06000
H 	H 	0.29640 0.79450 0.21890 0.06000
H 	H 	0.19490 0.78130 0.33600 0.05800
H 	H 	0.78760 0.29360 0.96460 -0.00700
H 	H 	0.90280 0.49720 0.96090 0.12300
H 	H 	0.61960 0.57570 0.06620 0.12100
H 	H 	0.51460 0.37170 0.06950 -0.00200
H 	H 	0.09740 0.87370 0.15690 0.05500
H 	H 	0.79850 0.91890 0.84820 0.06400
H 	H 	0.14830 0.85890 0.86520 0.05600
H 	H 	0.05590 0.84610 0.74620 0.05900
H 	H 	0.20360 0.20550 0.71890 0.06000
H 	H 	0.30510 0.21870 0.83600 0.05800
H 	H 	0.71240 0.70640 0.46460 -0.00700
H 	H 	0.59720 0.50280 0.46090 0.12300
H 	H 	0.88040 0.42430 0.56620 0.12100
H 	H 	0.98540 0.62830 0.56950 -0.00300
H 	H 	0.40260 0.12630 0.65690 0.05900
H 	H 	0.70150 0.08110 0.34820 0.06100
C 	C 	0.81600 0.04410 0.56650 0.33800
C 	C 	0.74070 0.03960 0.63870 -0.05700
C 	C 	0.66290 0.92860 0.66500 -0.02400
C 	C 	0.60680 0.92120 0.73630 -0.01900
C 	C 	0.62580 0.02380 0.78140 -0.06500
C 	C 	0.69580 0.13460 0.75280 -0.01800
C 	C 	0.75560 0.14320 0.68190 -0.02000
C 	C 	0.57650 0.01440 0.86240 0.36400
C 	C 	0.24730 0.64820 0.01530 0.12700
C 	C 	0.17750 0.52610 0.01790 -0.20900
C 	C 	0.22820 0.44130 0.98910 0.21500
C 	C 	0.34450 0.48060 0.95550 -0.20500
C 	C 	0.40720 0.60250 0.95430 0.12300
C 	C 	0.18900 0.24440 0.05280 0.20500
C 	C 	0.11900 0.11560 0.05610 -0.04800
C 	C 	0.03200 0.06460 0.99880 0.03200
C 	C 	0.00330 0.13370 0.93850 -0.05400
C 	C 	0.06790 0.26670 0.93680 0.20400
C 	C 	0.91870 0.07930 0.88310 -0.00800
C 	C 	0.14330 0.04530 0.11420 -0.03600
C 	C 	0.68400 0.95590 0.06650 0.33300
C 	C 	0.75930 0.96040 0.13870 -0.06100
C 	C 	0.83710 0.07140 0.16500 -0.01900
C 	C 	0.89320 0.07880 0.23630 -0.01300
C 	C 	0.87420 0.97620 0.28140 -0.06900
C 	C 	0.80420 0.86540 0.25280 -0.01800
C 	C 	0.74440 0.85680 0.18190 -0.02000
C 	C 	0.92350 0.98560 0.36240 0.35800
C 	C 	0.25270 0.35180 0.51530 0.12700
C 	C 	0.32250 0.47390 0.51790 -0.20800
C 	C 	0.27180 0.55870 0.48910 0.21400
C 	C 	0.15550 0.51940 0.45550 -0.20500
C 	C 	0.09280 0.39750 0.45430 0.12200
C 	C 	0.31100 0.75560 0.55280 0.20600
C 	C 	0.38100 0.88440 0.55610 -0.05000
C 	C 	0.46800 0.93540 0.49880 0.03000
C 	C 	0.49670 0.86630 0.43850 -0.04600
C 	C 	0.43210 0.73330 0.43680 0.20200
C 	C 	0.58130 0.92070 0.38310 -0.02500
C 	C 	0.35670 0.95470 0.61420 -0.02300
C 	C 	0.18400 0.95590 0.43350 0.33800
C 	C 	0.25930 0.96040 0.36130 -0.05700
C 	C 	0.33710 0.07140 0.33500 -0.02400
C 	C 	0.39320 0.07880 0.26370 -0.01900
C 	C 	0.37420 0.97620 0.21860 -0.06500
C 	C 	0.30420 0.86540 0.24720 -0.01800
C 	C 	0.24440 0.85680 0.31810 -0.02000
C 	C 	0.42350 0.98560 0.13760 0.36400
C 	C 	0.75270 0.35180 0.98470 0.12700
C 	C 	0.82250 0.47390 0.98210 -0.20900
C 	C 	0.77180 0.55870 0.01090 0.21500
C 	C 	0.65550 0.51940 0.04450 -0.20500
C 	C 	0.59280 0.39750 0.04570 0.12300
C 	C 	0.81100 0.75560 0.94720 0.20500
C 	C 	0.88100 0.88440 0.94390 -0.04800
C 	C 	0.96800 0.93540 0.00120 0.03200
C 	C 	0.99670 0.86630 0.06150 -0.05400
C 	C 	0.93210 0.73330 0.06320 0.20400
C 	C 	0.08130 0.92070 0.11690 -0.00800
C 	C 	0.85670 0.95470 0.88580 -0.03600
C 	C 	0.31600 0.04410 0.93350 0.33300
C 	C 	0.24070 0.03960 0.86130 -0.06100
C 	C 	0.16290 0.92860 0.83500 -0.01900
C 	C 	0.10680 0.92120 0.76370 -0.01300
C 	C 	0.12580 0.02380 0.71860 -0.06900
C 	C 	0.19580 0.13460 0.74720 -0.01800
C 	C 	0.25560 0.14320 0.81810 -0.02000
C 	C 	0.07650 0.01440 0.63760 0.35800
C 	C 	0.74730 0.64820 0.48470 0.12700
C 	C 	0.67750 0.52610 0.48210 -0.20800
C 	C 	0.72820 0.44130 0.51090 0.21400
C 	C 	0.84450 0.48060 0.54450 -0.20500
C 	C 	0.90720 0.60250 0.54570 0.12200
C 	C 	0.68900 0.24440 0.44720 0.20600
C 	C 	0.61900 0.11560 0.44390 -0.05000
C 	C 	0.53200 0.06460 0.50120 0.03000
C 	C 	0.50330 0.13370 0.56150 -0.04600
C 	C 	0.56790 0.26670 0.56320 0.20200
C 	C 	0.41870 0.07930 0.61690 -0.02500
C 	C 	0.64330 0.04530 0.38580 -0.02300
N 	N 	0.36070 0.68560 0.98570 -0.26600
N 	N 	0.16000 0.31190 0.99200 -0.18400
N 	N 	0.13930 0.31440 0.48570 -0.26700
N 	N 	0.34000 0.68810 0.49200 -0.18400
N 	N 	0.63930 0.31440 0.01430 -0.26600
N 	N 	0.84000 0.68810 0.00800 -0.18400
N 	N 	0.86070 0.68560 0.51430 -0.26700
N 	N 	0.66000 0.31190 0.50800 -0.18400
O 	O 	0.81750 0.94220 0.53910 -0.44600
O 	O 	0.87610 0.14640 0.54080 -0.41500
O 	O 	0.52930 0.90700 0.88750 -0.45200
O 	O 	0.59090 0.11110 0.89790 -0.44900
O 	O 	0.27150 0.29800 0.09780 -0.21400
O 	O 	0.04470 0.33520 0.88900 -0.21800
O 	O 	0.68250 0.05780 0.03910 -0.44100
O 	O 	0.62390 0.85360 0.04080 -0.41500
O 	O 	0.97070 0.09300 0.38750 -0.44600
O 	O 	0.90910 0.88890 0.39790 -0.44800
O 	O 	0.22850 0.70200 0.59780 -0.21400
O 	O 	0.45530 0.66480 0.38900 -0.21700
O 	O 	0.18250 0.05780 0.46090 -0.44600
O 	O 	0.12390 0.85360 0.45920 -0.41500
O 	O 	0.47070 0.09300 0.11250 -0.45200
O 	O 	0.40910 0.88890 0.10210 -0.44900
O 	O 	0.72850 0.70200 0.90220 -0.21400
O 	O 	0.95530 0.66480 0.11100 -0.21800
O 	O 	0.31750 0.94220 0.96090 -0.44100
O 	O 	0.37610 0.14640 0.95920 -0.41500
O 	O 	0.02930 0.90700 0.61250 -0.44600
O 	O 	0.09090 0.11110 0.60210 -0.44800
O 	O 	0.77150 0.29800 0.40220 -0.21400
O 	O 	0.54470 0.33520 0.61100 -0.21700
