data_crystal

_cell_length_a 16.08710
_cell_length_b 18.85690
_cell_length_c 18.85690
_cell_angle_alpha 90.00000
_cell_angle_beta  90.00000
_cell_angle_gamma 90.00000

_symmetry_space_group_name_	'P 1'
_symmetry_space_group_name_H-M	'P 1'

loop_
_symmetry_equiv_pos_as_xyz
  x,y,z

loop_
_atom_site_label
_atom_site_type_symbol
_atom_site_fract_x
_atom_site_fract_y
_atom_site_fract_z
_atom_site_charge
Zn	Zn	0.22564 0.84303 0.11558 1.19300
Zn	Zn	0.77436 0.11558 0.15697 1.19300
Zn	Zn	0.22564 0.15697 0.88442 1.19300
Zn	Zn	0.77436 0.88442 0.84303 1.19300
Zn	Zn	0.72564 0.34303 0.61558 1.19300
Zn	Zn	0.27436 0.61558 0.65697 1.19300
Zn	Zn	0.72564 0.65697 0.38442 1.19300
Zn	Zn	0.27436 0.38442 0.34303 1.19300
B 	B 	0.89480 0.84220 0.20360 1.37000
B 	B 	0.10520 0.20360 0.15780 1.37000
B 	B 	0.89480 0.15780 0.79640 1.36900
B 	B 	0.10520 0.79640 0.84220 1.36900
B 	B 	0.39480 0.34220 0.70360 1.36900
B 	B 	0.60520 0.70360 0.65780 1.36900
B 	B 	0.39480 0.65780 0.29640 1.37000
B 	B 	0.60520 0.29640 0.34220 1.37000
H 	H 	-0.00000 0.95560 0.25750 -0.02300
H 	H 	0.00000 0.25750 0.04440 -0.01900
H 	H 	-0.00000 0.04440 0.74250 -0.02200
H 	H 	-0.00000 0.74250 0.95560 -0.02000
H 	H 	0.50000 0.45560 0.75750 -0.02200
H 	H 	0.50000 0.75750 0.54440 -0.02200
H 	H 	0.50000 0.54440 0.24250 -0.02200
H 	H 	0.50000 0.24250 0.45560 -0.02200
H 	H 	0.35490 0.08830 0.18590 0.01100
H 	H 	0.64510 0.18590 0.91170 0.01000
H 	H 	0.35490 0.91170 0.81410 0.01400
H 	H 	0.64510 0.81410 0.08830 0.01500
H 	H 	0.85490 0.58830 0.68590 0.01200
H 	H 	0.14510 0.68590 0.41170 0.01300
H 	H 	0.85490 0.41170 0.31410 0.01200
H 	H 	0.14510 0.31410 0.58830 0.01300
H 	H 	0.97950 0.79820 0.32870 -0.01800
H 	H 	0.02050 0.32870 0.20180 -0.01700
H 	H 	0.97950 0.20180 0.67130 -0.01700
H 	H 	0.02050 0.67130 0.79820 -0.01700
H 	H 	0.47950 0.29820 0.82870 -0.01700
H 	H 	0.52050 0.82870 0.70180 -0.01700
H 	H 	0.47950 0.70180 0.17130 -0.01700
H 	H 	0.52050 0.17130 0.29820 -0.01700
H 	H 	0.44290 0.09640 0.94910 0.07300
H 	H 	0.55710 0.94910 0.90360 0.07200
H 	H 	0.44290 0.90360 0.05090 0.06500
H 	H 	0.55710 0.05090 0.09640 0.06500
H 	H 	0.94290 0.59640 0.44910 0.06800
H 	H 	0.05710 0.44910 0.40360 0.06900
H 	H 	0.94290 0.40360 0.55090 0.06800
H 	H 	0.05710 0.55090 0.59640 0.06900
H 	H 	0.42000 0.18770 0.14050 0.04900
H 	H 	0.58000 0.14050 0.81230 0.05000
H 	H 	0.42000 0.81230 0.85950 0.04500
H 	H 	0.58000 0.85950 0.18770 0.04500
H 	H 	0.92000 0.68770 0.64050 0.04700
H 	H 	0.08000 0.64050 0.31230 0.04700
H 	H 	0.92000 0.31230 0.35950 0.04700
H 	H 	0.08000 0.35950 0.68770 0.04700
H 	H 	0.46550 0.19110 0.02170 0.01400
H 	H 	0.53450 0.02170 0.80890 0.01400
H 	H 	0.46550 0.80890 0.97830 0.01900
H 	H 	0.53450 0.97830 0.19110 0.01900
H 	H 	0.96550 0.69110 0.52170 0.01600
H 	H 	0.03450 0.52170 0.30890 0.01700
H 	H 	0.96550 0.30890 0.47830 0.01600
H 	H 	0.03450 0.47830 0.69110 0.01700
H 	H 	0.14620 0.95270 0.21910 0.02200
H 	H 	0.85380 0.21910 0.04730 0.02200
H 	H 	0.14620 0.04730 0.78090 0.02300
H 	H 	0.85380 0.78090 0.95270 0.02100
H 	H 	0.64620 0.45270 0.71910 0.02200
H 	H 	0.35380 0.71910 0.54730 0.02200
H 	H 	0.64620 0.54730 0.28090 0.02200
H 	H 	0.35380 0.28090 0.45270 0.02200
H 	H 	0.75760 0.02620 0.30530 0.02100
H 	H 	0.24240 0.30530 0.97380 0.01900
H 	H 	0.75760 0.97380 0.69470 0.01800
H 	H 	0.24240 0.69470 0.02620 0.02100
H 	H 	0.25760 0.52620 0.80530 0.02200
H 	H 	0.74240 0.80530 0.47380 0.02200
H 	H 	0.25760 0.47380 0.19470 0.02200
H 	H 	0.74240 0.19470 0.52620 0.02200
H 	H 	0.07980 0.73840 0.10970 0.16700
H 	H 	0.92020 0.10970 0.26160 0.16900
H 	H 	0.07980 0.26160 0.89030 0.16600
H 	H 	0.92020 0.89030 0.73840 0.16800
H 	H 	0.57980 0.23840 0.60970 0.16800
H 	H 	0.42020 0.60970 0.76160 0.16700
H 	H 	0.57980 0.76160 0.39030 0.16700
H 	H 	0.42020 0.39030 0.23840 0.16800
H 	H 	0.98440 0.76040 0.09950 0.18400
H 	H 	0.01560 0.09950 0.23960 0.18900
H 	H 	0.98440 0.23960 0.90050 0.18300
H 	H 	0.01560 0.90050 0.76040 0.18700
H 	H 	0.48440 0.26040 0.59950 0.18600
H 	H 	0.51560 0.59950 0.73960 0.18600
H 	H 	0.48440 0.73960 0.40050 0.18600
H 	H 	0.51560 0.40050 0.26040 0.18600
H 	H 	0.01400 0.72320 0.17150 0.18800
H 	H 	0.98600 0.17150 0.27680 0.18900
H 	H 	0.01400 0.27680 0.82850 0.18700
H 	H 	0.98600 0.82850 0.72320 0.18800
H 	H 	0.51400 0.22320 0.67150 0.18800
H 	H 	0.48600 0.67150 0.77680 0.18800
H 	H 	0.51400 0.77680 0.32850 0.18800
H 	H 	0.48600 0.32850 0.22320 0.18800
H 	H 	0.89380 0.91780 0.09040 0.18100
H 	H 	0.10620 0.09040 0.08220 0.17900
H 	H 	0.89380 0.08220 0.90960 0.17700
H 	H 	0.10620 0.90960 0.91780 0.18100
H 	H 	0.39380 0.41780 0.59040 0.18000
H 	H 	0.60620 0.59040 0.58220 0.18000
H 	H 	0.39380 0.58220 0.40960 0.18000
H 	H 	0.60620 0.40960 0.41780 0.18000
H 	H 	0.81840 0.96760 0.06650 0.21300
H 	H 	0.18160 0.06650 0.03240 0.21200
H 	H 	0.81840 0.03240 0.93350 0.21000
H 	H 	0.18160 0.93350 0.96760 0.21200
H 	H 	0.31840 0.46760 0.56650 0.21200
H 	H 	0.68160 0.56650 0.53240 0.21200
H 	H 	0.31840 0.53240 0.43350 0.21200
H 	H 	0.68160 0.43350 0.46760 0.21200
H 	H 	0.90490 0.00210 0.09030 0.17900
H 	H 	0.09510 0.09030 0.99790 0.17500
H 	H 	0.90490 0.99790 0.90970 0.17300
H 	H 	0.09510 0.90970 0.00210 0.17900
H 	H 	0.40490 0.50210 0.59030 0.17600
H 	H 	0.59510 0.59030 0.49790 0.17600
H 	H 	0.40490 0.49790 0.40970 0.17600
H 	H 	0.59510 0.40970 0.50210 0.17700
H 	H 	0.90300 0.72280 0.41410 0.02000
H 	H 	0.09700 0.41410 0.27720 0.02000
H 	H 	0.90300 0.27720 0.58590 0.02000
H 	H 	0.09700 0.58590 0.72280 0.02000
H 	H 	0.40300 0.22280 0.91410 0.01900
H 	H 	0.59700 0.91410 0.77720 0.01900
H 	H 	0.40300 0.77720 0.08590 0.02000
H 	H 	0.59700 0.08590 0.22280 0.02000
H 	H 	0.81030 0.90770 0.32400 -0.02100
H 	H 	0.18970 0.32400 0.09230 -0.02000
H 	H 	0.81030 0.09230 0.67600 -0.02000
H 	H 	0.18970 0.67600 0.90770 -0.02100
H 	H 	0.31030 0.40770 0.82400 -0.02200
H 	H 	0.68970 0.82400 0.59230 -0.02200
H 	H 	0.31030 0.59230 0.17600 -0.02100
H 	H 	0.68970 0.17600 0.40770 -0.02100
H 	H 	0.69300 0.72520 0.24550 0.19100
H 	H 	0.30700 0.24550 0.27480 0.19200
H 	H 	0.69300 0.27480 0.75450 0.19100
H 	H 	0.30700 0.75450 0.72520 0.19100
H 	H 	0.19300 0.22520 0.74550 0.19200
H 	H 	0.80700 0.74550 0.77480 0.19100
H 	H 	0.19300 0.77480 0.25450 0.19100
H 	H 	0.80700 0.25450 0.22520 0.19100
H 	H 	0.75480 0.74090 0.18080 0.22900
H 	H 	0.24520 0.18080 0.25910 0.23000
H 	H 	0.75480 0.25910 0.81920 0.22900
H 	H 	0.24520 0.81920 0.74090 0.22900
H 	H 	0.25480 0.24090 0.68080 0.23000
H 	H 	0.74520 0.68080 0.75910 0.22900
H 	H 	0.25480 0.75910 0.31920 0.22900
H 	H 	0.74520 0.31920 0.24090 0.22900
H 	H 	0.71560 0.80530 0.22490 0.21400
H 	H 	0.28440 0.22490 0.19470 0.21500
H 	H 	0.71560 0.19470 0.77510 0.21400
H 	H 	0.28440 0.77510 0.80530 0.21400
H 	H 	0.21560 0.30530 0.72490 0.21500
H 	H 	0.78440 0.72490 0.69470 0.21400
H 	H 	0.21560 0.69470 0.27510 0.21500
H 	H 	0.78440 0.27510 0.30530 0.21400
H 	H 	0.86600 0.81100 0.16600 -0.47800
H 	H 	0.13400 0.16600 0.18900 -0.47800
H 	H 	0.86600 0.18900 0.83400 -0.47900
H 	H 	0.13400 0.83400 0.81100 -0.47800
H 	H 	0.36600 0.31100 0.66600 -0.47800
H 	H 	0.63400 0.66600 0.68900 -0.47800
H 	H 	0.36600 0.68900 0.33400 -0.47800
H 	H 	0.63400 0.33400 0.31100 -0.47800
C 	C 	0.38400 0.03180 0.02370 0.07100
C 	C 	0.61600 0.02370 0.96820 0.06900
C 	C 	0.38400 0.96820 0.97630 0.05100
C 	C 	0.61600 0.97630 0.03180 0.05300
C 	C 	0.88400 0.53180 0.52370 0.06100
C 	C 	0.11600 0.52370 0.46820 0.06100
C 	C 	0.88400 0.46820 0.47630 0.06100
C 	C 	0.11600 0.47630 0.53180 0.06100
C 	C 	0.35570 0.03180 0.09600 -0.15500
C 	C 	0.64430 0.09600 0.96820 -0.15800
C 	C 	0.35570 0.96820 0.90400 -0.14900
C 	C 	0.64430 0.90400 0.03180 -0.14500
C 	C 	0.85570 0.53180 0.59600 -0.15200
C 	C 	0.14430 0.59600 0.46820 -0.15200
C 	C 	0.85570 0.46820 0.40400 -0.15200
C 	C 	0.14430 0.40400 0.53180 -0.15100
C 	C 	0.02510 0.92010 0.22900 0.06000
C 	C 	0.97490 0.22900 0.07990 0.05300
C 	C 	0.02510 0.07990 0.77100 0.06000
C 	C 	0.97490 0.77100 0.92010 0.05300
C 	C 	0.52510 0.42010 0.72900 0.05800
C 	C 	0.47490 0.72900 0.57990 0.05800
C 	C 	0.52510 0.57990 0.27100 0.05800
C 	C 	0.47490 0.27100 0.42010 0.05800
C 	C 	0.04770 0.82650 0.16490 0.27000
C 	C 	0.95230 0.16490 0.17350 0.27000
C 	C 	0.04770 0.17350 0.83510 0.27000
C 	C 	0.95230 0.83510 0.82650 0.26900
C 	C 	0.54770 0.32650 0.66490 0.27000
C 	C 	0.45230 0.66490 0.67350 0.27000
C 	C 	0.54770 0.67350 0.33510 0.27000
C 	C 	0.45230 0.33510 0.32650 0.27000
C 	C 	0.37140 0.08900 0.13750 0.05300
C 	C 	0.62860 0.13750 0.91100 0.05500
C 	C 	0.37140 0.91100 0.86250 0.04400
C 	C 	0.62860 0.86250 0.08900 0.04200
C 	C 	0.87140 0.58900 0.63750 0.04800
C 	C 	0.12860 0.63750 0.41100 0.04900
C 	C 	0.87140 0.41100 0.36250 0.04800
C 	C 	0.12860 0.36250 0.58900 0.04800
C 	C 	0.92500 0.78000 0.32220 0.06600
C 	C 	0.07500 0.32220 0.22000 0.06600
C 	C 	0.92500 0.22000 0.67780 0.06600
C 	C 	0.07500 0.67780 0.78000 0.06600
C 	C 	0.42500 0.28000 0.82220 0.06600
C 	C 	0.57500 0.82220 0.72000 0.06600
C 	C 	0.42500 0.72000 0.17780 0.06600
C 	C 	0.57500 0.17780 0.28000 0.06600
C 	C 	0.42510 0.09470 0.99710 -0.12100
C 	C 	0.57490 0.99710 0.90530 -0.12100
C 	C 	0.42510 0.90530 0.00290 -0.09800
C 	C 	0.57490 0.00290 0.09470 -0.09900
C 	C 	0.92510 0.59470 0.49710 -0.11000
C 	C 	0.07490 0.49710 0.40530 -0.11000
C 	C 	0.92510 0.40530 0.50290 -0.11000
C 	C 	0.07490 0.50290 0.59470 -0.11000
C 	C 	0.83610 0.96610 0.17310 0.29200
C 	C 	0.16390 0.17310 0.03390 0.29400
C 	C 	0.83610 0.03390 0.82690 0.29200
C 	C 	0.16390 0.82690 0.96610 0.29200
C 	C 	0.33610 0.46610 0.67310 0.29300
C 	C 	0.66390 0.67310 0.53390 0.29300
C 	C 	0.33610 0.53390 0.32690 0.29300
C 	C 	0.66390 0.32690 0.46610 0.29300
C 	C 	0.41080 0.14780 0.11070 -0.11800
C 	C 	0.58920 0.11070 0.85220 -0.11900
C 	C 	0.41080 0.85220 0.88930 -0.10600
C 	C 	0.58920 0.88930 0.14780 -0.10500
C 	C 	0.91080 0.64780 0.61070 -0.11200
C 	C 	0.08920 0.61070 0.35220 -0.11200
C 	C 	0.91080 0.35220 0.38930 -0.11200
C 	C 	0.08920 0.38930 0.64780 -0.11200
C 	C 	0.31170 0.97070 0.12650 0.40300
C 	C 	0.68830 0.12650 0.02930 0.40700
C 	C 	0.31170 0.02930 0.87350 0.40300
C 	C 	0.68830 0.87350 0.97070 0.39900
C 	C 	0.81170 0.47070 0.62650 0.40300
C 	C 	0.18830 0.62650 0.52930 0.40300
C 	C 	0.81170 0.52930 0.37350 0.40300
C 	C 	0.18830 0.37350 0.47070 0.40300
C 	C 	0.43810 0.15020 0.03930 0.03000
C 	C 	0.56190 0.03930 0.84980 0.03100
C 	C 	0.43810 0.84980 0.96070 0.01100
C 	C 	0.56190 0.96070 0.15020 0.01100
C 	C 	0.93810 0.65020 0.53930 0.02000
C 	C 	0.06190 0.53930 0.34980 0.02100
C 	C 	0.93810 0.34980 0.46070 0.02000
C 	C 	0.06190 0.46070 0.65020 0.02100
C 	C 	0.10540 0.91810 0.20760 -0.04800
C 	C 	0.89460 0.20760 0.08190 -0.04400
C 	C 	0.10540 0.08190 0.79240 -0.04700
C 	C 	0.89460 0.79240 0.91810 -0.04500
C 	C 	0.60540 0.41810 0.70760 -0.04700
C 	C 	0.39460 0.70760 0.58190 -0.04700
C 	C 	0.60540 0.58190 0.29240 -0.04700
C 	C 	0.39460 0.29240 0.41810 -0.04700
C 	C 	0.03000 0.75620 0.13380 -0.63700
C 	C 	0.97000 0.13380 0.24380 -0.64600
C 	C 	0.03000 0.24380 0.86620 -0.63600
C 	C 	0.97000 0.86620 0.75620 -0.64400
C 	C 	0.53000 0.25620 0.63380 -0.64100
C 	C 	0.47000 0.63380 0.74380 -0.64000
C 	C 	0.53000 0.74380 0.36620 -0.64100
C 	C 	0.47000 0.36620 0.25620 -0.64100
C 	C 	0.86580 0.96320 0.09880 -0.66800
C 	C 	0.13420 0.09880 0.03680 -0.65800
C 	C 	0.86580 0.03680 0.90120 -0.65500
C 	C 	0.13420 0.90120 0.96320 -0.66700
C 	C 	0.36580 0.46320 0.59880 -0.66200
C 	C 	0.63420 0.59880 0.53680 -0.66200
C 	C 	0.36580 0.53680 0.40120 -0.66200
C 	C 	0.63420 0.40120 0.46320 -0.66200
C 	C 	0.88370 0.73790 0.36890 -0.04300
C 	C 	0.11630 0.36890 0.26210 -0.04300
C 	C 	0.88370 0.26210 0.63110 -0.04300
C 	C 	0.11630 0.63110 0.73790 -0.04300
C 	C 	0.38370 0.23790 0.86890 -0.04300
C 	C 	0.61630 0.86890 0.76210 -0.04300
C 	C 	0.38370 0.76210 0.13110 -0.04300
C 	C 	0.61630 0.13110 0.23790 -0.04300
C 	C 	0.78230 -0.00000 0.27140 -0.05900
C 	C 	0.21770 0.27140 -0.00000 -0.05500
C 	C 	0.78230 0.00000 0.72860 -0.05500
C 	C 	0.21770 0.72860 -0.00000 -0.05800
C 	C 	0.28230 0.50000 0.77140 -0.06200
C 	C 	0.71770 0.77140 0.50000 -0.06200
C 	C 	0.28230 0.50000 0.22860 -0.06200
C 	C 	0.71770 0.22860 0.50000 -0.06200
C 	C 	0.81240 0.93420 0.28120 0.06600
C 	C 	0.18760 0.28120 0.06580 0.06600
C 	C 	0.81240 0.06580 0.71880 0.06600
C 	C 	0.18760 0.71880 0.93420 0.06600
C 	C 	0.31240 0.43420 0.78120 0.06900
C 	C 	0.68760 0.78120 0.56580 0.06900
C 	C 	0.31240 0.56580 0.21880 0.06900
C 	C 	0.68760 0.21880 0.43420 0.06900
C 	C 	0.80720 0.75470 0.27630 0.33200
C 	C 	0.19280 0.27630 0.24530 0.33200
C 	C 	0.80720 0.24530 0.72370 0.33200
C 	C 	0.19280 0.72370 0.75470 0.33200
C 	C 	0.30720 0.25470 0.77630 0.33200
C 	C 	0.69280 0.77630 0.74530 0.33200
C 	C 	0.30720 0.74530 0.22370 0.33200
C 	C 	0.69280 0.22370 0.25470 0.33200
C 	C 	0.73690 0.75670 0.22790 -0.71200
C 	C 	0.26310 0.22790 0.24330 -0.71200
C 	C 	0.73690 0.24330 0.77210 -0.71100
C 	C 	0.26310 0.77210 0.75670 -0.71100
C 	C 	0.23690 0.25670 0.72790 -0.71200
C 	C 	0.76310 0.72790 0.74330 -0.71100
C 	C 	0.23690 0.74330 0.27210 -0.71200
C 	C 	0.76310 0.27210 0.25670 -0.71200
N 	N 	0.98690 0.86090 0.20160 -0.42600
N 	N 	0.01310 0.20160 0.13910 -0.42300
N 	N 	0.98690 0.13910 0.79840 -0.42600
N 	N 	0.01310 0.79840 0.86090 -0.42300
N 	N 	0.48690 0.36090 0.70160 -0.42500
N 	N 	0.51310 0.70160 0.63910 -0.42500
N 	N 	0.48690 0.63910 0.29840 -0.42500
N 	N 	0.51310 0.29840 0.36090 -0.42500
N 	N 	0.79790 0.02120 0.20170 -0.30900
N 	N 	0.20210 0.20170 0.97880 -0.31100
N 	N 	0.79790 0.97880 0.79830 -0.31100
N 	N 	0.20210 0.79830 0.02120 -0.30800
N 	N 	0.29790 0.52120 0.70170 -0.30900
N 	N 	0.70210 0.70170 0.47880 -0.30900
N 	N 	0.29790 0.47880 0.29830 -0.30900
N 	N 	0.70210 0.29830 0.52120 -0.30900
N 	N 	0.11900 0.85990 0.16740 -0.32000
N 	N 	0.88100 0.16740 0.14010 -0.32100
N 	N 	0.11900 0.14010 0.83260 -0.32000
N 	N 	0.88100 0.83260 0.85990 -0.32100
N 	N 	0.61900 0.35990 0.66740 -0.32000
N 	N 	0.38100 0.66740 0.64010 -0.32000
N 	N 	0.61900 0.64010 0.33260 -0.32000
N 	N 	0.38100 0.33260 0.35990 -0.32000
N 	N 	0.84670 0.91230 0.21830 -0.40900
N 	N 	0.15330 0.21830 0.08770 -0.40900
N 	N 	0.84670 0.08770 0.78170 -0.40900
N 	N 	0.15330 0.78170 0.91230 -0.40900
N 	N 	0.34670 0.41230 0.71830 -0.40900
N 	N 	0.65330 0.71830 0.58770 -0.40900
N 	N 	0.34670 0.58770 0.28170 -0.40900
N 	N 	0.65330 0.28170 0.41230 -0.40900
N 	N 	0.87620 0.79200 0.26500 -0.41600
N 	N 	0.12380 0.26500 0.20800 -0.41500
N 	N 	0.87620 0.20800 0.73500 -0.41600
N 	N 	0.12380 0.73500 0.79200 -0.41500
N 	N 	0.37620 0.29200 0.76500 -0.41600
N 	N 	0.62380 0.76500 0.70800 -0.41500
N 	N 	0.37620 0.70800 0.23500 -0.41600
N 	N 	0.62380 0.23500 0.29200 -0.41600
N 	N 	0.80840 0.72130 0.33820 -0.32000
N 	N 	0.19160 0.33820 0.27870 -0.32000
N 	N 	0.80840 0.27870 0.66180 -0.32000
N 	N 	0.19160 0.66180 0.72130 -0.32000
N 	N 	0.30840 0.22130 0.83820 -0.32000
N 	N 	0.69160 0.83820 0.77870 -0.32000
N 	N 	0.30840 0.77870 0.16180 -0.32000
N 	N 	0.69160 0.16180 0.22130 -0.32000
O 	O 	0.26950 0.93330 0.08560 -0.50900
O 	O 	0.73050 0.08560 0.06670 -0.50900
O 	O 	0.26950 0.06670 0.91440 -0.50900
O 	O 	0.73050 0.91440 0.93330 -0.50800
O 	O 	0.76950 0.43330 0.58560 -0.50900
O 	O 	0.23050 0.58560 0.56670 -0.50900
O 	O 	0.76950 0.56670 0.41440 -0.50900
O 	O 	0.23050 0.41440 0.43330 -0.50900
O 	O 	0.31420 0.96070 0.18940 -0.35100
O 	O 	0.68580 0.18940 0.03930 -0.35000
O 	O 	0.31420 0.03930 0.81060 -0.34900
O 	O 	0.68580 0.81060 0.96070 -0.35000
O 	O 	0.81420 0.46070 0.68940 -0.35000
O 	O 	0.18580 0.68940 0.53930 -0.35000
O 	O 	0.81420 0.53930 0.31060 -0.35000
O 	O 	0.18580 0.31060 0.46070 -0.35000
