data_crystal

_cell_length_a 8.23360
_cell_length_b 9.69700
_cell_length_c 19.40200
_cell_angle_alpha 90.00000
_cell_angle_beta  90.00000
_cell_angle_gamma 101.72700

_symmetry_space_group_name_	'P 1'
_symmetry_space_group_name_H-M	'P 1'

loop_
_symmetry_equiv_pos_as_xyz
  x,y,z

loop_
_atom_site_label
_atom_site_type_symbol
_atom_site_fract_x
_atom_site_fract_y
_atom_site_fract_z
_atom_site_charge
Zn	Zn	0.28491 0.15703 0.29588 1.26800
Zn	Zn	0.63815 0.05313 0.23975 1.22000
Zn	Zn	0.71509 0.84297 0.79588 1.26800
Zn	Zn	0.36185 0.94687 0.73975 1.22200
H 	H 	0.14820 0.19770 0.32150 -0.21800
H 	H 	0.98680 0.36630 0.37930 0.47400
H 	H 	0.01690 0.22570 0.40940 0.47700
H 	H 	0.21190 0.46950 0.41020 -0.27700
H 	H 	0.26030 0.32860 0.43380 -0.29300
H 	H 	0.11470 0.38170 0.47050 -0.29800
H 	H 	0.85180 0.80230 0.82150 -0.21900
H 	H 	0.01320 0.63370 0.87930 0.48100
H 	H 	0.98310 0.77430 0.90940 0.48600
H 	H 	0.78810 0.53050 0.91020 -0.28100
H 	H 	0.73970 0.67140 0.93380 -0.29500
H 	H 	0.88530 0.61830 0.97050 -0.29800
C 	C 	0.46890 0.19010 0.04560 0.27200
C 	C 	0.51540 0.15360 0.98160 0.33500
C 	C 	0.47130 0.01590 0.95740 -0.17000
C 	C 	0.37860 0.91840 0.00120 0.23800
C 	C 	0.33070 0.95600 0.06540 0.30700
C 	C 	0.37620 0.09210 0.08950 -0.23700
C 	C 	0.32480 0.13300 0.16030 0.48400
C 	C 	0.52060 0.97440 0.88650 0.50600
C 	C 	0.85940 0.71200 0.22600 0.28600
C 	C 	0.78290 0.57240 0.22580 0.29500
C 	C 	0.70730 0.50780 0.28430 -0.21300
C 	C 	0.71350 0.58880 0.34290 0.29100
C 	C 	0.79440 0.72960 0.34280 0.30800
C 	C 	0.86770 0.79340 0.28460 -0.25400
C 	C 	0.95880 0.94730 0.28460 0.51500
C 	C 	0.61270 0.35520 0.28280 0.50400
C 	C 	0.07090 0.31000 0.38540 -1.28800
C 	C 	0.17000 0.37600 0.42730 1.37400
C 	C 	0.53110 0.80990 0.54560 0.30200
C 	C 	0.48460 0.84640 0.48160 0.31000
C 	C 	0.52870 0.98410 0.45740 -0.19400
C 	C 	0.62140 0.08160 0.50120 0.28800
C 	C 	0.66930 0.04400 0.56540 0.29100
C 	C 	0.62380 0.90790 0.58950 -0.23000
C 	C 	0.67520 0.86700 0.66030 0.48300
C 	C 	0.47940 0.02560 0.38650 0.50700
C 	C 	0.14060 0.28800 0.72600 0.28700
C 	C 	0.21710 0.42760 0.72580 0.29600
C 	C 	0.29270 0.49220 0.78430 -0.21300
C 	C 	0.28650 0.41120 0.84290 0.29200
C 	C 	0.20560 0.27040 0.84280 0.30800
C 	C 	0.13230 0.20660 0.78460 -0.25300
C 	C 	0.04120 0.05270 0.78460 0.51100
C 	C 	0.38730 0.64480 0.78280 0.50400
C 	C 	0.92910 0.69000 0.88540 -1.30800
C 	C 	0.83000 0.62400 0.92730 1.39500
O 	O 	0.39350 0.08650 0.21158 -0.55300
O 	O 	0.21970 0.20380 0.16610 -0.27600
O 	O 	0.62700 0.90050 0.88553 -0.39200
O 	O 	0.45000 0.01690 0.83701 -0.42300
O 	O 	0.10910 0.96720 0.29500 -0.36800
O 	O 	0.87660 0.04050 0.27420 -0.42500
O 	O 	0.69590 0.26380 0.27020 -0.41800
O 	O 	0.46120 0.34110 0.29330 -0.39200
O 	O 	0.10280 0.26530 0.31880 0.16800
O 	O 	0.60650 0.91350 0.71158 -0.55000
O 	O 	0.78030 0.79620 0.66610 -0.27200
O 	O 	0.37300 0.09950 0.38553 -0.39700
O 	O 	0.55000 0.98310 0.33701 -0.42100
O 	O 	0.89090 0.03280 0.79500 -0.36800
O 	O 	0.12340 0.95950 0.77420 -0.42000
O 	O 	0.30410 0.73620 0.77020 -0.41600
O 	O 	0.53880 0.65890 0.79330 -0.39100
O 	O 	0.89720 0.73470 0.81880 0.17400
F 	F 	0.51870 0.32380 0.06600 -0.34900
F 	F 	0.60570 0.25180 0.94062 -0.35200
F 	F 	0.33010 0.78410 0.98046 -0.34600
F 	F 	0.23640 0.85790 0.10510 -0.36200
F 	F 	0.92630 0.77030 0.16662 -0.36400
F 	F 	0.77950 0.49910 0.16716 -0.35700
F 	F 	0.64620 0.53320 0.40196 -0.34400
F 	F 	0.80030 0.80370 0.40179 -0.38100
F 	F 	0.48130 0.67620 0.56600 -0.34500
F 	F 	0.39430 0.74820 0.44062 -0.35300
F 	F 	0.66990 0.21590 0.48046 -0.36800
F 	F 	0.76360 0.14210 0.60510 -0.35500
F 	F 	0.07370 0.22970 0.66662 -0.36000
F 	F 	0.22050 0.50090 0.66716 -0.35300
F 	F 	0.35380 0.46680 0.90196 -0.34000
F 	F 	0.19970 0.19630 0.90179 -0.37700
