data_crystal

_cell_length_a 7.75360
_cell_length_b 15.07360
_cell_length_c 16.80080
_cell_angle_alpha 90.00000
_cell_angle_beta  99.79900
_cell_angle_gamma 90.00000

_symmetry_space_group_name_	'P 1'
_symmetry_space_group_name_H-M	'P 1'

loop_
_symmetry_equiv_pos_as_xyz
  x,y,z

loop_
_atom_site_label
_atom_site_type_symbol
_atom_site_fract_x
_atom_site_fract_y
_atom_site_fract_z
_atom_site_charge
Ca	Ca	0.50477 0.21911 0.24950 1.49300
Ca	Ca	0.99523 0.71911 0.75050 1.49300
Ca	Ca	0.49523 0.78089 0.75050 1.49400
Ca	Ca	0.00477 0.28089 0.24950 1.49400
H 	H 	0.61620 0.49280 0.13450 0.12600
H 	H 	0.73600 0.44010 0.08700 0.12000
H 	H 	0.62950 0.54340 0.96450 0.02100
H 	H 	0.51290 0.59230 0.01440 0.01500
H 	H 	0.37930 0.49370 0.36310 0.12300
H 	H 	0.27140 0.43810 0.41350 0.11700
H 	H 	0.63470 0.47310 0.45780 0.02000
H 	H 	0.54320 0.40980 0.50840 0.01800
H 	H 	0.88380 0.99280 0.86550 0.12700
H 	H 	0.76400 0.94010 0.91300 0.12100
H 	H 	0.87050 0.04340 0.03550 0.02000
H 	H 	0.98710 0.09230 0.98560 0.01100
H 	H 	0.12070 0.99370 0.63690 0.12300
H 	H 	0.22860 0.93810 0.58650 0.11700
H 	H 	0.86530 0.97310 0.54220 0.02000
H 	H 	0.95680 0.90980 0.49160 0.01800
H 	H 	0.38380 0.50720 0.86550 0.12600
H 	H 	0.26400 0.55990 0.91300 0.12000
H 	H 	0.37050 0.45660 0.03550 0.02100
H 	H 	0.48710 0.40770 0.98560 0.01500
H 	H 	0.62070 0.50630 0.63690 0.12300
H 	H 	0.72860 0.56190 0.58650 0.11700
H 	H 	0.36530 0.52690 0.54220 0.02000
H 	H 	0.45680 0.59020 0.49160 0.01800
H 	H 	0.11620 0.00720 0.13450 0.12700
H 	H 	0.23600 0.05990 0.08700 0.12100
H 	H 	0.12950 0.95660 0.96450 0.02000
H 	H 	0.01290 0.90770 0.01440 0.01100
H 	H 	0.87930 0.00630 0.36310 0.12300
H 	H 	0.77140 0.06190 0.41350 0.11700
H 	H 	0.13470 0.02690 0.45780 0.02000
H 	H 	0.04320 0.09020 0.50840 0.01800
C 	C 	0.58984 0.36197 0.14754 0.44100
C 	C 	0.61902 0.44353 0.09851 -0.39300
C 	C 	0.48571 0.45694 0.02175 0.00200
C 	C 	0.41810 0.36326 0.35059 0.43700
C 	C 	0.38609 0.44455 0.39990 -0.38600
C 	C 	0.52449 0.46147 0.47455 -0.00000
C 	C 	0.91016 0.86197 0.85246 0.43700
C 	C 	0.88098 0.94353 0.90149 -0.39900
C 	C 	0.01429 0.95694 0.97825 0.01100
C 	C 	0.08190 0.86326 0.64941 0.44100
C 	C 	0.11391 0.94455 0.60010 -0.38400
C 	C 	0.97551 0.96147 0.52545 -0.00200
C 	C 	0.41016 0.63803 0.85246 0.44100
C 	C 	0.38098 0.55647 0.90149 -0.39300
C 	C 	0.51429 0.54306 0.97825 0.00200
C 	C 	0.58190 0.63674 0.64941 0.43700
C 	C 	0.61391 0.55545 0.60010 -0.38600
C 	C 	0.47551 0.53853 0.52545 -0.00000
C 	C 	0.08984 0.13803 0.14754 0.43700
C 	C 	0.11902 0.05647 0.09851 -0.39900
C 	C 	0.98571 0.04306 0.02175 0.01100
C 	C 	0.91810 0.13674 0.35059 0.44100
C 	C 	0.88609 0.05545 0.39990 -0.38400
C 	C 	0.02449 0.03853 0.47455 -0.00200
O 	O 	0.43701 0.33237 0.14428 -0.47100
O 	O 	0.71919 0.32674 0.19169 -0.60700
O 	O 	0.28984 0.32718 0.30662 -0.61000
O 	O 	0.57193 0.33461 0.35421 -0.46700
O 	O 	0.06299 0.83237 0.85572 -0.46600
O 	O 	0.78081 0.82674 0.80831 -0.60800
O 	O 	0.21016 0.82718 0.69338 -0.61000
O 	O 	0.92807 0.83461 0.64579 -0.47000
O 	O 	0.56299 0.66763 0.85572 -0.47100
O 	O 	0.28081 0.67326 0.80831 -0.60700
O 	O 	0.71016 0.67282 0.69338 -0.61000
O 	O 	0.42807 0.66539 0.64579 -0.46700
O 	O 	0.93701 0.16763 0.14428 -0.46600
O 	O 	0.21919 0.17326 0.19169 -0.60800
O 	O 	0.78984 0.17282 0.30662 -0.61000
O 	O 	0.07193 0.16539 0.35421 -0.47000
