data_crystal

_cell_length_a 10.68000
_cell_length_b 12.35600
_cell_length_c 17.10400
_cell_angle_alpha 90.00000
_cell_angle_beta  95.47000
_cell_angle_gamma 90.00000

_symmetry_space_group_name_	'P 1'
_symmetry_space_group_name_H-M	'P 1'

loop_
_symmetry_equiv_pos_as_xyz
  x,y,z

loop_
_atom_site_label
_atom_site_type_symbol
_atom_site_fract_x
_atom_site_fract_y
_atom_site_fract_z
_atom_site_charge
Zn	Zn	0.27289 0.26390 0.39897 1.17300
Zn	Zn	0.79293 0.25515 0.54300 1.17400
Zn	Zn	0.22711 0.76390 0.10103 1.17200
Zn	Zn	0.70707 0.75515 0.95700 1.17400
Zn	Zn	0.72711 0.73610 0.60103 1.17400
Zn	Zn	0.20707 0.74485 0.45700 1.17500
Zn	Zn	0.77289 0.23610 0.89897 1.17300
Zn	Zn	0.29293 0.24485 0.04300 1.17500
H 	H 	0.93260 0.36260 0.78750 0.16300
H 	H 	0.99090 0.31810 0.71100 0.16300
H 	H 	0.88360 0.40880 0.70270 0.17200
H 	H 	0.52050 0.05520 0.64350 0.11200
H 	H 	0.64200 0.01520 0.60390 0.08900
H 	H 	0.52770 0.31670 0.33690 0.15600
H 	H 	0.63900 0.36340 0.39670 0.16500
H 	H 	0.66010 0.25520 0.34820 0.17300
H 	H 	0.98260 0.00450 0.32720 0.17000
H 	H 	0.06900 0.09460 0.29200 0.15800
H 	H 	0.13020 0.00850 0.35430 0.15300
H 	H 	0.17390 0.30430 0.58380 0.09600
H 	H 	0.04280 0.36760 0.57400 0.09200
H 	H 	0.38270 0.61480 0.36400 0.16000
H 	H 	0.46430 0.51230 0.39540 0.16600
H 	H 	0.35860 0.49910 0.32320 0.16400
H 	H 	0.56740 0.86260 0.71250 0.16300
H 	H 	0.50910 0.81810 0.78900 0.16400
H 	H 	0.61640 0.90880 0.79730 0.17200
H 	H 	0.97950 0.55520 0.85650 0.11000
H 	H 	0.85800 0.51520 0.89610 0.08800
H 	H 	0.97230 0.81670 0.16310 0.15900
H 	H 	0.86100 0.86340 0.10330 0.16800
H 	H 	0.83990 0.75520 0.15180 0.17500
H 	H 	0.51740 0.50450 0.17280 0.17200
H 	H 	0.43100 0.59460 0.20800 0.15900
H 	H 	0.36980 0.50850 0.14570 0.15300
H 	H 	0.32610 0.80430 0.91620 0.09600
H 	H 	0.45720 0.86760 0.92600 0.09000
H 	H 	0.11730 0.11480 0.13600 0.15900
H 	H 	0.03570 0.01230 0.10460 0.16500
H 	H 	0.14140 0.99910 0.17680 0.16300
H 	H 	0.06740 0.63740 0.21250 0.16300
H 	H 	0.00910 0.68190 0.28900 0.16300
H 	H 	0.11640 0.59120 0.29730 0.17200
H 	H 	0.47950 0.94480 0.35650 0.11200
H 	H 	0.35800 0.98480 0.39610 0.08900
H 	H 	0.47230 0.68330 0.66310 0.15600
H 	H 	0.36100 0.63660 0.60330 0.16500
H 	H 	0.33990 0.74480 0.65180 0.17300
H 	H 	0.01740 0.99550 0.67280 0.17000
H 	H 	0.93100 0.90540 0.70800 0.15800
H 	H 	0.86980 0.99150 0.64570 0.15300
H 	H 	0.82610 0.69570 0.41620 0.09600
H 	H 	0.95720 0.63240 0.42600 0.09200
H 	H 	0.61730 0.38520 0.63600 0.16000
H 	H 	0.53570 0.48770 0.60460 0.16600
H 	H 	0.64140 0.50090 0.67680 0.16400
H 	H 	0.43260 0.13740 0.28750 0.16300
H 	H 	0.49090 0.18190 0.21100 0.16400
H 	H 	0.38360 0.09120 0.20270 0.17200
H 	H 	0.02050 0.44480 0.14350 0.11000
H 	H 	0.14200 0.48480 0.10390 0.08800
H 	H 	0.02770 0.18330 0.83690 0.15900
H 	H 	0.13900 0.13660 0.89670 0.16800
H 	H 	0.16010 0.24480 0.84820 0.17500
H 	H 	0.48260 0.49550 0.82720 0.17200
H 	H 	0.56900 0.40540 0.79200 0.15900
H 	H 	0.63020 0.49150 0.85430 0.15300
H 	H 	0.67390 0.19570 0.08380 0.09600
H 	H 	0.54280 0.13240 0.07400 0.09000
H 	H 	0.88270 0.88520 0.86400 0.15900
H 	H 	0.96430 0.98770 0.89540 0.16500
H 	H 	0.85860 0.00090 0.82320 0.16300
C 	C 	0.91420 0.34430 0.73189 -0.61300
C 	C 	0.81590 0.25800 0.72340 0.21700
C 	C 	0.67680 0.14700 0.67529 0.14500
C 	C 	0.59450 0.08010 0.61778 -0.33700
C 	C 	0.54950 0.13920 0.54372 0.16200
C 	C 	0.55320 0.23160 0.43896 0.21800
C 	C 	0.59890 0.29730 0.37472 -0.61300
C 	C 	0.05530 0.05220 0.33880 -0.57600
C 	C 	0.03130 0.12640 0.40401 0.22600
C 	C 	0.05530 0.24950 0.49119 0.16000
C 	C 	0.11030 0.33690 0.54486 -0.35600
C 	C 	0.17050 0.42660 0.50343 0.16000
C 	C 	0.28560 0.51100 0.42917 0.22200
C 	C 	0.38100 0.53650 0.37310 -0.60200
C 	C 	0.58580 0.84430 0.76811 -0.61400
C 	C 	0.68410 0.75800 0.77660 0.21700
C 	C 	0.82320 0.64700 0.82471 0.14400
C 	C 	0.90550 0.58010 0.88222 -0.33400
C 	C 	0.95050 0.63920 0.95628 0.15700
C 	C 	0.94680 0.73160 0.06104 0.22300
C 	C 	0.90110 0.79730 0.12528 -0.61900
C 	C 	0.44470 0.55220 0.16120 -0.57900
C 	C 	0.46870 0.62640 0.09599 0.22500
C 	C 	0.44470 0.74950 0.00881 0.16000
C 	C 	0.38970 0.83690 0.95514 -0.35500
C 	C 	0.32950 0.92660 0.99657 0.15600
C 	C 	0.21440 0.01100 0.07083 0.22000
C 	C 	0.11900 0.03650 0.12690 -0.60100
C 	C 	0.08580 0.65570 0.26811 -0.61300
C 	C 	0.18410 0.74200 0.27660 0.21700
C 	C 	0.32320 0.85300 0.32471 0.14500
C 	C 	0.40550 0.91990 0.38222 -0.33700
C 	C 	0.45050 0.86080 0.45628 0.16200
C 	C 	0.44680 0.76840 0.56104 0.21800
C 	C 	0.40110 0.70270 0.62528 -0.61300
C 	C 	0.94470 0.94780 0.66120 -0.57600
C 	C 	0.96870 0.87360 0.59599 0.22600
C 	C 	0.94470 0.75050 0.50881 0.16000
C 	C 	0.88970 0.66310 0.45514 -0.35600
C 	C 	0.82950 0.57340 0.49657 0.16000
C 	C 	0.71440 0.48900 0.57083 0.22200
C 	C 	0.61900 0.46350 0.62690 -0.60200
C 	C 	0.41420 0.15570 0.23189 -0.61400
C 	C 	0.31590 0.24200 0.22340 0.21700
C 	C 	0.17680 0.35300 0.17529 0.14400
C 	C 	0.09450 0.41990 0.11778 -0.33400
C 	C 	0.04950 0.36080 0.04372 0.15700
C 	C 	0.05320 0.26840 0.93896 0.22300
C 	C 	0.09890 0.20270 0.87472 -0.61900
C 	C 	0.55530 0.44780 0.83880 -0.57900
C 	C 	0.53130 0.37360 0.90401 0.22500
C 	C 	0.55530 0.25050 0.99119 0.16000
C 	C 	0.61030 0.16310 0.04486 -0.35500
C 	C 	0.67050 0.07340 0.00343 0.15600
C 	C 	0.78560 0.98900 0.92917 0.22000
C 	C 	0.88100 0.96350 0.87310 -0.60100
N 	N 	0.11660 0.20120 0.43541 -0.33300
N 	N 	0.92550 0.12760 0.43743 -0.16300
N 	N 	0.94180 0.20830 0.49411 -0.28600
N 	N 	0.25530 0.40994 0.44934 -0.33000
N 	N 	0.14910 0.52976 0.51582 -0.14600
N 	N 	0.22440 0.58429 0.46677 -0.29200
N 	N 	0.43450 0.20135 0.44457 -0.29500
N 	N 	0.43160 0.14137 0.51316 -0.14900
N 	N 	0.62910 0.19330 0.49980 -0.33300
N 	N 	0.76880 0.21565 0.65481 -0.33600
N 	N 	0.66820 0.14400 0.75134 -0.15300
N 	N 	0.75920 0.21720 0.78258 -0.29600
N 	N 	0.38340 0.70120 0.06459 -0.33300
N 	N 	0.57450 0.62760 0.06257 -0.16200
N 	N 	0.55820 0.70830 0.00589 -0.28500
N 	N 	0.24470 0.90994 0.05066 -0.32900
N 	N 	0.35090 0.02976 0.98418 -0.14200
N 	N 	0.27560 0.08429 0.03323 -0.29300
N 	N 	0.06550 0.70135 0.05543 -0.29800
N 	N 	0.06840 0.64137 0.98684 -0.14600
N 	N 	0.87090 0.69330 0.00020 -0.33100
N 	N 	0.73120 0.71565 0.84519 -0.33600
N 	N 	0.83180 0.64400 0.74866 -0.15300
N 	N 	0.74080 0.71720 0.71742 -0.29600
N 	N 	0.88340 0.79880 0.56459 -0.33300
N 	N 	0.07450 0.87240 0.56257 -0.16300
N 	N 	0.05820 0.79170 0.50589 -0.28600
N 	N 	0.74470 0.59006 0.55066 -0.33000
N 	N 	0.85090 0.47024 0.48418 -0.14600
N 	N 	0.77560 0.41571 0.53323 -0.29200
N 	N 	0.56550 0.79865 0.55543 -0.29500
N 	N 	0.56840 0.85863 0.48684 -0.14900
N 	N 	0.37090 0.80670 0.50020 -0.33300
N 	N 	0.23120 0.78435 0.34519 -0.33600
N 	N 	0.33180 0.85600 0.24866 -0.15300
N 	N 	0.24080 0.78280 0.21742 -0.29600
N 	N 	0.61660 0.29880 0.93541 -0.33300
N 	N 	0.42550 0.37240 0.93743 -0.16200
N 	N 	0.44180 0.29170 0.99411 -0.28500
N 	N 	0.75530 0.09006 0.94934 -0.32900
N 	N 	0.64910 0.97024 0.01582 -0.14200
N 	N 	0.72440 0.91571 0.96677 -0.29300
N 	N 	0.93450 0.29865 0.94457 -0.29800
N 	N 	0.93160 0.35863 0.01316 -0.14600
N 	N 	0.12910 0.30670 0.99980 -0.33100
N 	N 	0.26880 0.28435 0.15481 -0.33600
N 	N 	0.16820 0.35600 0.25134 -0.15300
N 	N 	0.25920 0.28280 0.28258 -0.29600
