data_crystal

_cell_length_a 10.82910
_cell_length_b 12.52900
_cell_length_c 16.84800
_cell_angle_alpha 90.00000
_cell_angle_beta  94.99300
_cell_angle_gamma 90.00000

_symmetry_space_group_name_	'P 1'
_symmetry_space_group_name_H-M	'P 1'

loop_
_symmetry_equiv_pos_as_xyz
  x,y,z

loop_
_atom_site_label
_atom_site_type_symbol
_atom_site_fract_x
_atom_site_fract_y
_atom_site_fract_z
_atom_site_charge
Zn	Zn	0.27540 0.26785 0.40442 1.17300
Zn	Zn	0.79421 0.25673 0.54327 1.17400
Zn	Zn	0.22460 0.76785 0.09558 1.17300
Zn	Zn	0.70579 0.75673 0.95673 1.17400
Zn	Zn	0.72460 0.73215 0.59558 1.17300
Zn	Zn	0.20579 0.74327 0.45673 1.17400
Zn	Zn	0.77540 0.23215 0.90442 1.17300
Zn	Zn	0.29421 0.24327 0.04327 1.17400
H 	H 	0.93510 0.35600 0.79220 0.16200
H 	H 	0.98840 0.31670 0.71150 0.16400
H 	H 	0.88290 0.40640 0.70860 0.17200
H 	H 	0.53120 0.05170 0.64480 0.11200
H 	H 	0.65120 0.01980 0.60110 0.09000
H 	H 	0.52020 0.33000 0.34240 0.15300
H 	H 	0.63570 0.37050 0.40030 0.16500
H 	H 	0.64900 0.26680 0.34620 0.17000
H 	H 	0.99950 0.02820 0.31700 0.15900
H 	H 	0.13310 0.08250 0.31550 0.13700
H 	H 	0.11370 0.98570 0.37520 0.14600
H 	H 	0.16670 0.31270 0.58920 0.09600
H 	H 	0.03650 0.37310 0.57560 0.09400
H 	H 	0.36930 0.61310 0.35840 0.16100
H 	H 	0.45900 0.52310 0.39870 0.16700
H 	H 	0.36060 0.49310 0.32570 0.16500
H 	H 	0.56490 0.85600 0.70780 0.16300
H 	H 	0.51160 0.81670 0.78850 0.16500
H 	H 	0.61710 0.90640 0.79140 0.17300
H 	H 	0.96880 0.55170 0.85520 0.11200
H 	H 	0.84880 0.51980 0.89890 0.09000
H 	H 	0.97980 0.83000 0.15760 0.15600
H 	H 	0.86430 0.87050 0.09970 0.16700
H 	H 	0.85100 0.76680 0.15380 0.17200
H 	H 	0.50050 0.52820 0.18300 0.16500
H 	H 	0.36690 0.58250 0.18450 0.14100
H 	H 	0.38630 0.48570 0.12480 0.15200
H 	H 	0.33330 0.81270 0.91080 0.09500
H 	H 	0.46350 0.87310 0.92440 0.09300
H 	H 	0.13070 0.11310 0.14160 0.16000
H 	H 	0.04100 0.02310 0.10130 0.16600
H 	H 	0.13940 0.99310 0.17430 0.16300
H 	H 	0.06490 0.64400 0.20780 0.16200
H 	H 	0.01160 0.68330 0.28850 0.16400
H 	H 	0.11710 0.59360 0.29140 0.17200
H 	H 	0.46880 0.94830 0.35520 0.11200
H 	H 	0.34880 0.98020 0.39890 0.09000
H 	H 	0.47980 0.67000 0.65760 0.15300
H 	H 	0.36430 0.62950 0.59970 0.16500
H 	H 	0.35100 0.73320 0.65380 0.17000
H 	H 	0.00050 0.97180 0.68300 0.15900
H 	H 	0.86690 0.91750 0.68450 0.13700
H 	H 	0.88630 0.01430 0.62480 0.14600
H 	H 	0.83330 0.68730 0.41080 0.09600
H 	H 	0.96350 0.62690 0.42440 0.09400
H 	H 	0.63070 0.38690 0.64160 0.16100
H 	H 	0.54100 0.47690 0.60130 0.16700
H 	H 	0.63940 0.50690 0.67430 0.16500
H 	H 	0.43510 0.14400 0.29220 0.16300
H 	H 	0.48840 0.18330 0.21150 0.16500
H 	H 	0.38290 0.09360 0.20860 0.17300
H 	H 	0.03120 0.44830 0.14480 0.11200
H 	H 	0.15120 0.48020 0.10110 0.09000
H 	H 	0.02020 0.17000 0.84240 0.15600
H 	H 	0.13570 0.12950 0.90030 0.16700
H 	H 	0.14900 0.23320 0.84620 0.17200
H 	H 	0.49950 0.47180 0.81700 0.16500
H 	H 	0.63310 0.41750 0.81550 0.14100
H 	H 	0.61370 0.51430 0.87520 0.15200
H 	H 	0.66670 0.18730 0.08920 0.09500
H 	H 	0.53650 0.12690 0.07560 0.09300
H 	H 	0.86930 0.88690 0.85840 0.16000
H 	H 	0.95900 0.97690 0.89870 0.16600
H 	H 	0.86060 0.00690 0.82570 0.16300
C 	C 	0.91420 0.34120 0.73550 -0.61400
C 	C 	0.81670 0.25650 0.72650 0.21900
C 	C 	0.68150 0.14650 0.67750 0.14800
C 	C 	0.60190 0.08090 0.61820 -0.34000
C 	C 	0.55300 0.14250 0.54610 0.16300
C 	C 	0.55170 0.23910 0.44220 0.21700
C 	C 	0.59270 0.30740 0.37720 -0.60900
C 	C 	0.07510 0.04910 0.34960 -0.53900
C 	C 	0.04340 0.12600 0.41150 0.22100
C 	C 	0.05590 0.25390 0.49460 0.16100
C 	C 	0.10550 0.34260 0.54800 -0.35700
C 	C 	0.16590 0.43050 0.50510 0.16300
C 	C 	0.28200 0.51250 0.43030 0.22200
C 	C 	0.37570 0.53760 0.37340 -0.60700
C 	C 	0.58580 0.84120 0.76450 -0.61500
C 	C 	0.68330 0.75650 0.77350 0.22000
C 	C 	0.81850 0.64650 0.82250 0.14800
C 	C 	0.89810 0.58090 0.88180 -0.34000
C 	C 	0.94700 0.64250 0.95390 0.16300
C 	C 	0.94830 0.73910 0.05780 0.22100
C 	C 	0.90730 0.80740 0.12280 -0.61400
C 	C 	0.42490 0.54910 0.15040 -0.55500
C 	C 	0.45660 0.62600 0.08850 0.22300
C 	C 	0.44410 0.75390 0.00540 0.16000
C 	C 	0.39450 0.84260 0.95200 -0.35500
C 	C 	0.33410 0.93050 0.99490 0.16100
C 	C 	0.21800 0.01250 0.06970 0.22100
C 	C 	0.12430 0.03760 0.12660 -0.60200
C 	C 	0.08580 0.65880 0.26450 -0.61400
C 	C 	0.18330 0.74350 0.27350 0.21900
C 	C 	0.31850 0.85350 0.32250 0.14800
C 	C 	0.39810 0.91910 0.38180 -0.34000
C 	C 	0.44700 0.85750 0.45390 0.16300
C 	C 	0.44830 0.76090 0.55780 0.21700
C 	C 	0.40730 0.69260 0.62280 -0.60900
C 	C 	0.92490 0.95090 0.65040 -0.53900
C 	C 	0.95660 0.87400 0.58850 0.22100
C 	C 	0.94410 0.74610 0.50540 0.16100
C 	C 	0.89450 0.65740 0.45200 -0.35700
C 	C 	0.83410 0.56950 0.49490 0.16300
C 	C 	0.71800 0.48750 0.56970 0.22200
C 	C 	0.62430 0.46240 0.62660 -0.60700
C 	C 	0.41420 0.15880 0.23550 -0.61500
C 	C 	0.31670 0.24350 0.22650 0.22000
C 	C 	0.18150 0.35350 0.17750 0.14800
C 	C 	0.10190 0.41910 0.11820 -0.34000
C 	C 	0.05300 0.35750 0.04610 0.16300
C 	C 	0.05170 0.26090 0.94220 0.22100
C 	C 	0.09270 0.19260 0.87720 -0.61400
C 	C 	0.57510 0.45090 0.84960 -0.55500
C 	C 	0.54340 0.37400 0.91150 0.22300
C 	C 	0.55590 0.24610 0.99460 0.16000
C 	C 	0.60550 0.15740 0.04800 -0.35500
C 	C 	0.66590 0.06950 0.00510 0.16100
C 	C 	0.78200 0.98750 0.93030 0.22100
C 	C 	0.87570 0.96240 0.87340 -0.60200
N 	N 	0.12170 0.20460 0.44160 -0.33300
N 	N 	0.93680 0.12610 0.44270 -0.16200
N 	N 	0.94510 0.20960 0.49710 -0.28500
N 	N 	0.25160 0.41280 0.45214 -0.33200
N 	N 	0.14370 0.53220 0.51730 -0.14600
N 	N 	0.21910 0.58500 0.46720 -0.29200
N 	N 	0.43550 0.20780 0.44940 -0.29600
N 	N 	0.43660 0.14470 0.51750 -0.14900
N 	N 	0.62890 0.20010 0.50160 -0.33300
N 	N 	0.77120 0.21570 0.65650 -0.33700
N 	N 	0.67340 0.14250 0.75440 -0.15200
N 	N 	0.76170 0.21480 0.78590 -0.29600
N 	N 	0.37830 0.70460 0.05840 -0.33300
N 	N 	0.56320 0.62610 0.05730 -0.16100
N 	N 	0.55490 0.70960 0.00290 -0.28400
N 	N 	0.24840 0.91280 0.04786 -0.33100
N 	N 	0.35630 0.03220 0.98270 -0.14400
N 	N 	0.28090 0.08500 0.03280 -0.29300
N 	N 	0.06450 0.70780 0.05060 -0.29800
N 	N 	0.06340 0.64470 0.98250 -0.14900
N 	N 	0.87110 0.70010 0.99840 -0.33400
N 	N 	0.72880 0.71570 0.84350 -0.33700
N 	N 	0.82660 0.64250 0.74560 -0.15200
N 	N 	0.73830 0.71480 0.71410 -0.29500
N 	N 	0.87830 0.79540 0.55840 -0.33300
N 	N 	0.06320 0.87390 0.55730 -0.16200
N 	N 	0.05490 0.79040 0.50290 -0.28500
N 	N 	0.74840 0.58720 0.54786 -0.33200
N 	N 	0.85630 0.46780 0.48270 -0.14600
N 	N 	0.78090 0.41500 0.53280 -0.29200
N 	N 	0.56450 0.79220 0.55060 -0.29600
N 	N 	0.56340 0.85530 0.48250 -0.14900
N 	N 	0.37110 0.79990 0.49840 -0.33300
N 	N 	0.22880 0.78430 0.34350 -0.33700
N 	N 	0.32660 0.85750 0.24560 -0.15200
N 	N 	0.23830 0.78520 0.21410 -0.29600
N 	N 	0.62170 0.29540 0.94160 -0.33300
N 	N 	0.43680 0.37390 0.94270 -0.16100
N 	N 	0.44510 0.29040 0.99710 -0.28400
N 	N 	0.75160 0.08720 0.95214 -0.33100
N 	N 	0.64370 0.96780 0.01730 -0.14400
N 	N 	0.71910 0.91500 0.96720 -0.29300
N 	N 	0.93550 0.29220 0.94940 -0.29800
N 	N 	0.93660 0.35530 0.01750 -0.14900
N 	N 	0.12890 0.29990 0.00160 -0.33400
N 	N 	0.27120 0.28430 0.15650 -0.33700
N 	N 	0.17340 0.35750 0.25440 -0.15200
N 	N 	0.26170 0.28520 0.28590 -0.29500
