data_crystal

_cell_length_a 9.03900
_cell_length_b 15.64100
_cell_length_c 19.37000
_cell_angle_alpha 90.00000
_cell_angle_beta  90.00000
_cell_angle_gamma 90.00000

_symmetry_space_group_name_	'P 1'
_symmetry_space_group_name_H-M	'P 1'

loop_
_symmetry_equiv_pos_as_xyz
  x,y,z

loop_
_atom_site_label
_atom_site_type_symbol
_atom_site_fract_x
_atom_site_fract_y
_atom_site_fract_z
_atom_site_charge
Ga	Ga	0.38750 0.88715 0.58871 2.08300
Ga	Ga	0.93420 0.86703 0.50253 2.07700
Ga	Ga	0.11250 0.38715 0.41129 2.08400
Ga	Ga	0.56580 0.36703 0.49747 2.07800
Ga	Ga	0.61250 0.11285 0.08871 2.08400
Ga	Ga	0.06580 0.13297 0.00253 2.07400
Ga	Ga	0.88750 0.61285 0.91129 2.08300
Ga	Ga	0.43420 0.63297 0.99747 2.07800
Ga	Ga	0.61250 0.11285 0.41129 2.08400
Ga	Ga	0.06580 0.13297 0.49747 2.07800
Ga	Ga	0.88750 0.61285 0.58871 2.08400
Ga	Ga	0.43420 0.63297 0.50253 2.07800
Ga	Ga	0.38750 0.88715 0.91129 2.08400
Ga	Ga	0.93420 0.86703 0.99747 2.07400
Ga	Ga	0.11250 0.38715 0.08871 2.08300
Ga	Ga	0.56580 0.36703 0.00253 2.07800
Ga	Ga	0.14760 0.07110 0.75000 2.01000
Ga	Ga	0.35240 0.57110 0.25000 2.01000
Ga	Ga	0.85240 0.92890 0.25000 2.01000
Ga	Ga	0.64760 0.42890 0.75000 2.01000
P 	P 	0.15890 0.72920 0.54140 0.65900
P 	P 	0.07310 0.98540 0.60480 0.66200
P 	P 	0.34110 0.22920 0.45860 0.65900
P 	P 	0.42690 0.48540 0.39520 0.65300
P 	P 	0.84110 0.27080 0.04140 0.65800
P 	P 	0.92690 0.01460 0.10480 0.65800
P 	P 	0.65890 0.77080 0.95860 0.64600
P 	P 	0.57310 0.51460 0.89520 0.65300
P 	P 	0.84110 0.27080 0.45860 0.65900
P 	P 	0.92690 0.01460 0.39520 0.66200
P 	P 	0.65890 0.77080 0.54140 0.65900
P 	P 	0.57310 0.51460 0.60480 0.65300
P 	P 	0.15890 0.72920 0.95860 0.65800
P 	P 	0.07310 0.98540 0.89520 0.65800
P 	P 	0.34110 0.22920 0.04140 0.64600
P 	P 	0.42690 0.48540 0.10480 0.65300
P 	P 	0.41130 0.94160 0.75000 0.67600
P 	P 	0.08870 0.44160 0.25000 0.67600
P 	P 	0.58870 0.05840 0.25000 0.67600
P 	P 	0.91130 0.55840 0.75000 0.67600
C 	C 	0.46680 0.97310 0.46930 0.24900
C 	C 	0.03320 0.47310 0.53070 0.24700
C 	C 	0.53320 0.02690 0.96930 0.26000
C 	C 	0.96680 0.52690 0.03070 0.24800
C 	C 	0.53320 0.02690 0.53070 0.24900
C 	C 	0.96680 0.52690 0.46930 0.24700
C 	C 	0.46680 0.97310 0.03070 0.26000
C 	C 	0.03320 0.47310 0.96930 0.24800
O 	O 	0.40990 0.90420 0.48430 -0.49100
O 	O 	0.48690 0.00520 0.41010 -0.47900
O 	O 	0.37520 0.88820 0.68700 -0.54300
O 	O 	0.22220 0.96580 0.57640 -0.64400
O 	O 	0.26500 0.78680 0.58150 -0.59400
O 	O 	0.24250 0.66560 0.49470 -0.66100
O 	O 	0.06110 0.68230 0.59310 -0.55900
O 	O 	0.06290 0.77930 0.48950 -0.66300
O 	O 	0.96400 0.91060 0.58770 -0.63000
O 	O 	0.01280 0.06780 0.56900 -0.72300
O 	O 	0.06770 0.99560 0.68230 -0.61600
O 	O 	0.09010 0.40420 0.51570 -0.49200
O 	O 	0.01310 0.50520 0.58990 -0.47500
O 	O 	0.12480 0.38820 0.31300 -0.54500
O 	O 	0.27780 0.46580 0.42360 -0.64400
O 	O 	0.23500 0.28680 0.41850 -0.59600
O 	O 	0.25750 0.16560 0.50530 -0.66200
O 	O 	0.43890 0.18230 0.40690 -0.56100
O 	O 	0.43710 0.27930 0.51050 -0.66600
O 	O 	0.53600 0.41060 0.41230 -0.62200
O 	O 	0.48720 0.56780 0.43100 -0.71800
O 	O 	0.43230 0.49560 0.31770 -0.61700
O 	O 	0.59010 0.09580 0.98430 -0.48900
O 	O 	0.51310 0.99480 0.91010 -0.49100
O 	O 	0.62480 0.11180 0.18700 -0.54300
O 	O 	0.77780 0.03420 0.07640 -0.64700
O 	O 	0.73500 0.21320 0.08150 -0.59500
O 	O 	0.75750 0.33440 0.99470 -0.66000
O 	O 	0.93890 0.31770 0.09310 -0.55700
O 	O 	0.93710 0.22070 0.98950 -0.66100
O 	O 	0.03600 0.08940 0.08770 -0.63600
O 	O 	0.98720 0.93220 0.06900 -0.71200
O 	O 	0.93230 0.00440 0.18230 -0.61600
O 	O 	0.90990 0.59580 0.01570 -0.48800
O 	O 	0.98690 0.49480 0.08990 -0.47400
O 	O 	0.87520 0.61180 0.81300 -0.54600
O 	O 	0.72220 0.53420 0.92360 -0.64600
O 	O 	0.76500 0.71320 0.91850 -0.59700
O 	O 	0.74250 0.83440 0.00530 -0.65000
O 	O 	0.56110 0.81770 0.90690 -0.56200
O 	O 	0.56290 0.72070 0.01050 -0.65800
O 	O 	0.46400 0.58940 0.91230 -0.62200
O 	O 	0.51280 0.43220 0.93100 -0.71800
O 	O 	0.56770 0.50440 0.81770 -0.61700
O 	O 	0.59010 0.09580 0.51570 -0.49100
O 	O 	0.51310 0.99480 0.58990 -0.47900
O 	O 	0.62480 0.11180 0.31300 -0.54300
O 	O 	0.77780 0.03420 0.42360 -0.64400
O 	O 	0.73500 0.21320 0.41850 -0.59400
O 	O 	0.75750 0.33440 0.50530 -0.66100
O 	O 	0.93890 0.31770 0.40690 -0.55900
O 	O 	0.93710 0.22070 0.51050 -0.66300
O 	O 	0.03600 0.08940 0.41230 -0.63000
O 	O 	0.98720 0.93220 0.43100 -0.72300
O 	O 	0.93230 0.00440 0.31770 -0.61600
O 	O 	0.90990 0.59580 0.48430 -0.49200
O 	O 	0.98690 0.49480 0.41010 -0.47500
O 	O 	0.87520 0.61180 0.68700 -0.54500
O 	O 	0.72220 0.53420 0.57640 -0.64400
O 	O 	0.76500 0.71320 0.58150 -0.59600
O 	O 	0.74250 0.83440 0.49470 -0.66200
O 	O 	0.56110 0.81770 0.59310 -0.56100
O 	O 	0.56290 0.72070 0.48950 -0.66600
O 	O 	0.46400 0.58940 0.58770 -0.62200
O 	O 	0.51280 0.43220 0.56900 -0.71800
O 	O 	0.56770 0.50440 0.68230 -0.61700
O 	O 	0.40990 0.90420 0.01570 -0.48900
O 	O 	0.48690 0.00520 0.08990 -0.49100
O 	O 	0.37520 0.88820 0.81300 -0.54300
O 	O 	0.22220 0.96580 0.92360 -0.64700
O 	O 	0.26500 0.78680 0.91850 -0.59500
O 	O 	0.24250 0.66560 0.00530 -0.66000
O 	O 	0.06110 0.68230 0.90690 -0.55700
O 	O 	0.06290 0.77930 0.01050 -0.66100
O 	O 	0.96400 0.91060 0.91230 -0.63600
O 	O 	0.01280 0.06780 0.93100 -0.71200
O 	O 	0.06770 0.99560 0.81770 -0.61600
O 	O 	0.09010 0.40420 0.98430 -0.48800
O 	O 	0.01310 0.50520 0.91010 -0.47400
O 	O 	0.12480 0.38820 0.18700 -0.54600
O 	O 	0.27780 0.46580 0.07640 -0.64600
O 	O 	0.23500 0.28680 0.08150 -0.59700
O 	O 	0.25750 0.16560 0.99470 -0.65000
O 	O 	0.43890 0.18230 0.09310 -0.56200
O 	O 	0.43710 0.27930 0.98950 -0.65800
O 	O 	0.53600 0.41060 0.08770 -0.62200
O 	O 	0.48720 0.56780 0.06900 -0.71800
O 	O 	0.43230 0.49560 0.18230 -0.61700
O 	O 	0.33700 0.02620 0.75000 -0.71300
O 	O 	0.58300 0.96070 0.75000 -0.22800
O 	O 	0.16300 0.52620 0.25000 -0.71700
O 	O 	0.91700 0.46070 0.25000 -0.22200
O 	O 	0.66300 0.97380 0.25000 -0.71300
O 	O 	0.41700 0.03930 0.25000 -0.22800
O 	O 	0.83700 0.47380 0.75000 -0.71700
O 	O 	0.08300 0.53930 0.75000 -0.22200
