data_crystal

_cell_length_a 9.01480
_cell_length_b 9.01480
_cell_length_c 11.46450
_cell_angle_alpha 90.00000
_cell_angle_beta  90.00000
_cell_angle_gamma 120.00000

_symmetry_space_group_name_	'P 1'
_symmetry_space_group_name_H-M	'P 1'

loop_
_symmetry_equiv_pos_as_xyz
  x,y,z

loop_
_atom_site_label
_atom_site_type_symbol
_atom_site_fract_x
_atom_site_fract_y
_atom_site_fract_z
_atom_site_charge
In	In	0.50000 0.00000 0.66667 1.95700
In	In	0.50000 0.50000 -0.00000 1.94600
In	In	0.00000 0.50000 0.33333 1.95500
C 	C 	0.79100 0.20900 0.50000 0.22200
C 	C 	0.69155 0.30845 0.50000 0.24900
C 	C 	0.41800 0.20900 0.83333 0.23900
C 	C 	0.61690 0.30845 0.83333 0.24200
C 	C 	0.79100 0.58200 0.16667 0.20400
C 	C 	0.69155 0.38310 0.16667 0.25700
C 	C 	0.20900 0.79100 0.50000 0.22200
C 	C 	0.30845 0.69155 0.50000 0.24900
C 	C 	0.58200 0.79100 0.83333 0.22400
C 	C 	0.38310 0.69155 0.83333 0.27400
C 	C 	0.20900 0.41800 0.16667 0.21900
C 	C 	0.30845 0.61690 0.16667 0.22500
O 	O 	0.73450 0.07520 0.56290 -0.42400
O 	O 	0.55670 0.24350 0.55690 -0.39800
O 	O 	0.34070 0.26550 0.89623 -0.34700
O 	O 	0.68680 0.44330 0.89023 -0.25400
O 	O 	0.92480 0.65930 0.22957 -0.27400
O 	O 	0.75650 0.31320 0.22357 -0.37400
O 	O 	0.26550 0.92480 0.56290 -0.30700
O 	O 	0.44330 0.75650 0.55690 -0.32000
O 	O 	0.65930 0.73450 0.89623 -0.23900
O 	O 	0.31320 0.55670 0.89023 -0.32000
O 	O 	0.07520 0.34070 0.22957 -0.49700
O 	O 	0.24350 0.68680 0.22357 -0.38600
O 	O 	0.65930 0.92480 0.77043 -0.23600
O 	O 	0.31320 0.75650 0.77643 -0.33000
O 	O 	0.07520 0.73450 0.43710 -0.42600
O 	O 	0.24350 0.55670 0.44310 -0.39600
O 	O 	0.26550 0.34070 0.10377 -0.49100
O 	O 	0.44330 0.68680 0.10977 -0.39300
O 	O 	0.34070 0.07520 0.77043 -0.45900
O 	O 	0.68680 0.24350 0.77643 -0.34200
O 	O 	0.92480 0.26550 0.43710 -0.31000
O 	O 	0.75650 0.44330 0.44310 -0.31800
O 	O 	0.73450 0.65930 0.10377 -0.38300
O 	O 	0.55670 0.31320 0.10977 -0.46000
