data_crystal

_cell_length_a 18.06160
_cell_length_b 18.06160
_cell_length_c 18.06160
_cell_angle_alpha 60.00000
_cell_angle_beta  60.00000
_cell_angle_gamma 60.00000

_symmetry_space_group_name_	'P 1'
_symmetry_space_group_name_H-M	'P 1'

loop_
_symmetry_equiv_pos_as_xyz
  x,y,z

loop_
_atom_site_label
_atom_site_type_symbol
_atom_site_fract_x
_atom_site_fract_y
_atom_site_fract_z
_atom_site_charge
Zn	Zn	0.79368 0.61896 0.79368 1.22100
Zn	Zn	0.79368 0.79368 0.61896 1.22100
Zn	Zn	0.79368 0.79368 0.79368 1.22100
Zn	Zn	0.61896 0.79368 0.79368 1.22100
Zn	Zn	0.20632 0.38104 0.20632 1.22100
Zn	Zn	0.20632 0.20632 0.38104 1.22100
Zn	Zn	0.38104 0.20632 0.20632 1.22100
Zn	Zn	0.20632 0.20632 0.20632 1.22100
H 	H 	0.96000 0.65422 0.96000 0.04000
H 	H 	0.42578 0.96000 0.65422 0.04000
H 	H 	0.96000 0.42578 0.96000 0.04000
H 	H 	0.65422 0.96000 0.42578 0.04000
H 	H 	0.65422 0.96000 0.96000 0.03900
H 	H 	0.96000 0.65422 0.42578 0.03900
H 	H 	0.42578 0.96000 0.96000 0.03900
H 	H 	0.96000 0.42578 0.65422 0.03900
H 	H 	0.96000 0.96000 0.65422 0.03900
H 	H 	0.65422 0.42578 0.96000 0.03900
H 	H 	0.96000 0.96000 0.42578 0.03900
H 	H 	0.42578 0.65422 0.96000 0.03900
H 	H 	0.57422 0.34578 0.04000 0.03900
H 	H 	0.04000 0.04000 0.34578 0.03900
H 	H 	0.34578 0.57422 0.04000 0.03900
H 	H 	0.04000 0.04000 0.57422 0.03900
H 	H 	0.57422 0.04000 0.04000 0.03900
H 	H 	0.04000 0.34578 0.57422 0.03900
H 	H 	0.34578 0.04000 0.04000 0.03900
H 	H 	0.04000 0.57422 0.34578 0.03900
H 	H 	0.57422 0.04000 0.34578 0.03900
H 	H 	0.04000 0.57422 0.04000 0.03900
H 	H 	0.34578 0.04000 0.57422 0.03900
H 	H 	0.04000 0.34578 0.04000 0.03900
C 	C 	0.97620 0.57920 0.97620 0.00500
C 	C 	0.46840 0.97620 0.57920 0.00500
C 	C 	0.97620 0.46840 0.97620 0.00500
C 	C 	0.57920 0.97620 0.46840 0.00500
C 	C 	0.57920 0.97620 0.97620 0.00500
C 	C 	0.97620 0.57920 0.46840 0.00500
C 	C 	0.46840 0.97620 0.97620 0.00500
C 	C 	0.97620 0.46840 0.57920 0.00500
C 	C 	0.97620 0.97620 0.57920 0.00500
C 	C 	0.57920 0.46840 0.97620 0.00500
C 	C 	0.97620 0.97620 0.46840 0.00500
C 	C 	0.46840 0.57920 0.97620 0.00500
C 	C 	0.53160 0.42080 0.02380 0.00500
C 	C 	0.02380 0.02380 0.42080 0.00500
C 	C 	0.42080 0.53160 0.02380 0.00500
C 	C 	0.02380 0.02380 0.53160 0.00500
C 	C 	0.53160 0.02380 0.02380 0.00500
C 	C 	0.02380 0.42080 0.53160 0.00500
C 	C 	0.42080 0.02380 0.02380 0.00500
C 	C 	0.02380 0.53160 0.42080 0.00500
C 	C 	0.53160 0.02380 0.42080 0.00500
C 	C 	0.02380 0.53160 0.02380 0.00500
C 	C 	0.42080 0.02380 0.53160 0.00500
C 	C 	0.02380 0.42080 0.02380 0.00500
C 	C 	0.88740 0.61260 0.88740 0.34200
C 	C 	0.94480 0.55520 0.94480 -0.09500
C 	C 	0.61260 0.88740 0.61260 0.34200
C 	C 	0.55520 0.94480 0.55520 -0.09500
C 	C 	0.61260 0.88740 0.88740 0.34200
C 	C 	0.55520 0.94480 0.94480 -0.09500
C 	C 	0.88740 0.61260 0.61260 0.34200
C 	C 	0.94480 0.55520 0.55520 -0.09500
C 	C 	0.88740 0.88740 0.61260 0.34200
C 	C 	0.94480 0.94480 0.55520 -0.09500
C 	C 	0.61260 0.61260 0.88740 0.34200
C 	C 	0.55520 0.55520 0.94480 -0.09500
C 	C 	0.38740 0.38740 0.11260 0.34200
C 	C 	0.44480 0.44480 0.05520 -0.09500
C 	C 	0.11260 0.11260 0.38740 0.34200
C 	C 	0.05520 0.05520 0.44480 -0.09500
C 	C 	0.38740 0.11260 0.11260 0.34200
C 	C 	0.44480 0.05520 0.05520 -0.09500
C 	C 	0.11260 0.38740 0.38740 0.34200
C 	C 	0.05520 0.44480 0.44480 -0.09500
C 	C 	0.38740 0.11260 0.38740 0.34200
C 	C 	0.44480 0.05520 0.44480 -0.09500
C 	C 	0.11260 0.38740 0.11260 0.34200
C 	C 	0.05520 0.44480 0.05520 -0.09500
O 	O 	0.86570 0.56950 0.86570 -0.49400
O 	O 	0.69910 0.86570 0.56950 -0.49400
O 	O 	0.86570 0.69910 0.86570 -0.49400
O 	O 	0.56950 0.86570 0.69910 -0.49400
O 	O 	0.56950 0.86570 0.86570 -0.49400
O 	O 	0.86570 0.56950 0.69910 -0.49400
O 	O 	0.69910 0.86570 0.86570 -0.49400
O 	O 	0.86570 0.69910 0.56950 -0.49400
O 	O 	0.86570 0.86570 0.56950 -0.49400
O 	O 	0.56950 0.69910 0.86570 -0.49400
O 	O 	0.86570 0.86570 0.69910 -0.49400
O 	O 	0.69910 0.56950 0.86570 -0.49400
O 	O 	0.30090 0.43050 0.13430 -0.49400
O 	O 	0.13430 0.13430 0.43050 -0.49400
O 	O 	0.43050 0.30090 0.13430 -0.49400
O 	O 	0.13430 0.13430 0.30090 -0.49400
O 	O 	0.30090 0.13430 0.13430 -0.49400
O 	O 	0.13430 0.43050 0.30090 -0.49400
O 	O 	0.43050 0.13430 0.13430 -0.49400
O 	O 	0.13430 0.30090 0.43050 -0.49400
O 	O 	0.30090 0.13430 0.43050 -0.49400
O 	O 	0.13430 0.30090 0.13430 -0.49400
O 	O 	0.43050 0.13430 0.30090 -0.49400
O 	O 	0.13430 0.43050 0.13430 -0.49400
O 	O 	0.75000 0.75000 0.75000 -0.96800
O 	O 	0.25000 0.25000 0.25000 -0.96800
