data_crystal

_cell_length_a 18.12600
_cell_length_b 18.12600
_cell_length_c 18.12600
_cell_angle_alpha 60.00000
_cell_angle_beta  60.00000
_cell_angle_gamma 60.00000

_symmetry_space_group_name_	'P 1'
_symmetry_space_group_name_H-M	'P 1'

loop_
_symmetry_equiv_pos_as_xyz
  x,y,z

loop_
_atom_site_label
_atom_site_type_symbol
_atom_site_fract_x
_atom_site_fract_y
_atom_site_fract_z
_atom_site_charge
Zn	Zn	0.04333 0.04333 0.04333 1.17900
Zn	Zn	0.04333 0.04333 0.87001 1.20900
Zn	Zn	0.04333 0.87001 0.04333 1.20900
Zn	Zn	0.87001 0.04333 0.04333 1.20900
Zn	Zn	0.45668 0.45668 0.62996 1.21700
Zn	Zn	0.45668 0.45668 0.45668 1.21500
Zn	Zn	0.62996 0.45668 0.45668 1.21700
Zn	Zn	0.45668 0.62996 0.45668 1.21700
H 	H 	0.29230 0.29230 0.81450 0.04700
H 	H 	0.29230 0.29230 0.60090 0.03300
H 	H 	0.81450 0.60090 0.29230 0.06000
H 	H 	0.60090 0.81450 0.29230 0.06000
H 	H 	0.29230 0.81450 0.60090 0.06000
H 	H 	0.29230 0.60090 0.81450 0.06000
H 	H 	0.81450 0.29230 0.29230 0.04700
H 	H 	0.60090 0.29230 0.29230 0.03300
H 	H 	0.29230 0.60090 0.29230 0.03300
H 	H 	0.29230 0.81450 0.29230 0.04700
H 	H 	0.81450 0.29230 0.60090 0.06000
H 	H 	0.60090 0.29230 0.81450 0.06000
C 	C 	0.22500 0.22500 0.83840 0.03300
C 	C 	0.27560 0.27560 0.78560 0.00300
C 	C 	0.22500 0.22500 0.71160 0.01200
C 	C 	0.27560 0.27560 0.66320 0.01200
C 	C 	0.83840 0.71160 0.22500 0.06200
C 	C 	0.78560 0.66320 0.27560 -0.01600
C 	C 	0.71160 0.83840 0.22500 0.06200
C 	C 	0.66320 0.78560 0.27560 -0.01600
C 	C 	0.22500 0.83840 0.71160 0.06200
C 	C 	0.27560 0.78560 0.66320 -0.01600
C 	C 	0.22500 0.71160 0.83840 0.06200
C 	C 	0.27560 0.66320 0.78560 -0.01600
C 	C 	0.83840 0.22500 0.22500 0.03300
C 	C 	0.78560 0.27560 0.27560 0.00300
C 	C 	0.71160 0.22500 0.22500 0.01200
C 	C 	0.66320 0.27560 0.27560 0.01200
C 	C 	0.22500 0.71160 0.22500 0.01200
C 	C 	0.27560 0.66320 0.27560 0.01200
C 	C 	0.22500 0.83840 0.22500 0.03300
C 	C 	0.27560 0.78560 0.27560 0.00300
C 	C 	0.83840 0.22500 0.71160 0.06200
C 	C 	0.78560 0.27560 0.66320 -0.01600
C 	C 	0.71160 0.22500 0.83840 0.06200
C 	C 	0.66320 0.27560 0.78560 -0.01600
C 	C 	0.13650 0.13650 0.86350 0.41500
C 	C 	0.20050 0.20050 0.79950 -0.10400
C 	C 	0.35840 0.35840 0.64160 0.45800
C 	C 	0.30790 0.30790 0.69210 -0.17900
C 	C 	0.86350 0.86350 0.13650 0.42000
C 	C 	0.79950 0.79950 0.20050 -0.11000
C 	C 	0.64160 0.64160 0.35840 0.44600
C 	C 	0.69210 0.69210 0.30790 -0.14700
C 	C 	0.13650 0.86350 0.86350 0.42000
C 	C 	0.20050 0.79950 0.79950 -0.11000
C 	C 	0.35840 0.64160 0.64160 0.44600
C 	C 	0.30790 0.69210 0.69210 -0.14700
C 	C 	0.86350 0.13650 0.13650 0.41500
C 	C 	0.79950 0.20050 0.20050 -0.10400
C 	C 	0.64160 0.35840 0.35840 0.45800
C 	C 	0.69210 0.30790 0.30790 -0.17900
C 	C 	0.13650 0.86350 0.13650 0.41500
C 	C 	0.20050 0.79950 0.20050 -0.10400
C 	C 	0.35840 0.64160 0.35840 0.45800
C 	C 	0.30790 0.69210 0.30790 -0.17900
C 	C 	0.86350 0.13650 0.86350 0.42000
C 	C 	0.79950 0.20050 0.79950 -0.11000
C 	C 	0.64160 0.35840 0.64160 0.44600
C 	C 	0.69210 0.30790 0.69210 -0.14700
O 	O 	0.50000 0.50000 0.50000 -0.97100
O 	O 	-0.00000 0.00000 -0.00000 -1.09300
O 	O 	0.11450 0.11450 0.94630 -0.51400
O 	O 	0.38330 0.38330 0.67710 -0.51800
O 	O 	0.11450 0.11450 0.82470 -0.54800
O 	O 	0.38330 0.38330 0.55630 -0.52300
O 	O 	0.94630 0.82470 0.11450 -0.48100
O 	O 	0.67710 0.55630 0.38330 -0.51100
O 	O 	0.82470 0.94630 0.11450 -0.48100
O 	O 	0.55630 0.67710 0.38330 -0.51100
O 	O 	0.11450 0.94630 0.82470 -0.48100
O 	O 	0.38330 0.67710 0.55630 -0.51100
O 	O 	0.11450 0.82470 0.94630 -0.48100
O 	O 	0.38330 0.55630 0.67710 -0.51100
O 	O 	0.94630 0.11450 0.11450 -0.51400
O 	O 	0.67710 0.38330 0.38330 -0.51800
O 	O 	0.82470 0.11450 0.11450 -0.54800
O 	O 	0.55630 0.38330 0.38330 -0.52300
O 	O 	0.11450 0.82470 0.11450 -0.54800
O 	O 	0.38330 0.55630 0.38330 -0.52300
O 	O 	0.11450 0.94630 0.11450 -0.51400
O 	O 	0.38330 0.67710 0.38330 -0.51800
O 	O 	0.94630 0.11450 0.82470 -0.48100
O 	O 	0.67710 0.38330 0.55630 -0.51100
O 	O 	0.82470 0.11450 0.94630 -0.48100
O 	O 	0.55630 0.38330 0.67710 -0.51100
