data_crystal

_cell_length_a 18.08970
_cell_length_b 18.08970
_cell_length_c 18.08970
_cell_angle_alpha 60.00000
_cell_angle_beta  60.00000
_cell_angle_gamma 60.00000

_symmetry_space_group_name_	'P 1'
_symmetry_space_group_name_H-M	'P 1'

loop_
_symmetry_equiv_pos_as_xyz
  x,y,z

loop_
_atom_site_label
_atom_site_type_symbol
_atom_site_fract_x
_atom_site_fract_y
_atom_site_fract_z
_atom_site_charge
Zn	Zn	0.38110 0.20630 0.20630 1.23100
Zn	Zn	0.20630 0.38110 0.20630 1.23100
Zn	Zn	0.20630 0.20630 0.38110 1.23100
Zn	Zn	0.20630 0.20630 0.20630 1.23100
Zn	Zn	0.79370 0.61890 0.79370 1.23100
Zn	Zn	0.61890 0.79370 0.79370 1.23100
Zn	Zn	0.79370 0.79370 0.61890 1.23100
Zn	Zn	0.79370 0.79370 0.79370 1.23100
H 	H 	0.35200 0.04240 0.56320 0.04800
H 	H 	0.04240 0.35200 0.04240 0.04800
H 	H 	0.56320 0.04240 0.35200 0.04700
H 	H 	0.04240 0.56320 0.04240 0.04700
H 	H 	0.35200 0.56320 0.04240 0.04700
H 	H 	0.04240 0.04240 0.56320 0.04700
H 	H 	0.56320 0.35200 0.04240 0.04700
H 	H 	0.04240 0.04240 0.35200 0.04700
H 	H 	0.35200 0.04240 0.04240 0.04700
H 	H 	0.04240 0.56320 0.35200 0.04700
H 	H 	0.56320 0.04240 0.04240 0.04700
H 	H 	0.04240 0.35200 0.56320 0.04700
H 	H 	0.95760 0.64800 0.43680 0.04700
H 	H 	0.64800 0.95760 0.95760 0.04700
H 	H 	0.95760 0.43680 0.64800 0.04700
H 	H 	0.43680 0.95760 0.95760 0.04700
H 	H 	0.43680 0.64800 0.95760 0.04700
H 	H 	0.95760 0.95760 0.43680 0.04700
H 	H 	0.64800 0.43680 0.95760 0.04700
H 	H 	0.95760 0.95760 0.64800 0.04700
H 	H 	0.95760 0.64800 0.95760 0.04700
H 	H 	0.43680 0.95760 0.64800 0.04700
H 	H 	0.95760 0.43680 0.95760 0.04700
H 	H 	0.64800 0.95760 0.43680 0.04700
C 	C 	0.41430 0.02590 0.53390 -0.00500
C 	C 	0.02590 0.41430 0.02590 -0.00500
C 	C 	0.53390 0.02590 0.41430 -0.00500
C 	C 	0.02590 0.53390 0.02590 -0.00500
C 	C 	0.41430 0.53390 0.02590 -0.00500
C 	C 	0.02590 0.02590 0.53390 -0.00500
C 	C 	0.53390 0.41430 0.02590 -0.00500
C 	C 	0.02590 0.02590 0.41430 -0.00500
C 	C 	0.41430 0.02590 0.02590 -0.00500
C 	C 	0.02590 0.53390 0.41430 -0.00500
C 	C 	0.53390 0.02590 0.02590 -0.00500
C 	C 	0.02590 0.41430 0.53390 -0.00500
C 	C 	0.97410 0.58570 0.46610 -0.00500
C 	C 	0.58570 0.97410 0.97410 -0.00500
C 	C 	0.97410 0.46610 0.58570 -0.00500
C 	C 	0.46610 0.97410 0.97410 -0.00500
C 	C 	0.46610 0.58570 0.97410 -0.00500
C 	C 	0.97410 0.97410 0.46610 -0.00500
C 	C 	0.58570 0.46610 0.97410 -0.00500
C 	C 	0.97410 0.97410 0.58570 -0.00500
C 	C 	0.97410 0.58570 0.97410 -0.00500
C 	C 	0.46610 0.97410 0.58570 -0.00500
C 	C 	0.97410 0.46610 0.97410 -0.00500
C 	C 	0.58570 0.97410 0.46610 -0.00500
C 	C 	0.38580 0.11420 0.38580 0.42200
C 	C 	0.44340 0.05660 0.44340 -0.10700
C 	C 	0.11420 0.38580 0.11420 0.42200
C 	C 	0.05660 0.44340 0.05660 -0.10700
C 	C 	0.38580 0.38580 0.11420 0.42200
C 	C 	0.44340 0.44340 0.05660 -0.10700
C 	C 	0.11420 0.11420 0.38580 0.42200
C 	C 	0.05660 0.05660 0.44340 -0.10700
C 	C 	0.38580 0.11420 0.11420 0.42200
C 	C 	0.44340 0.05660 0.05660 -0.10700
C 	C 	0.11420 0.38580 0.38580 0.42200
C 	C 	0.05660 0.44340 0.44340 -0.10700
C 	C 	0.88580 0.61420 0.61420 0.42200
C 	C 	0.94340 0.55660 0.55660 -0.10700
C 	C 	0.61420 0.88580 0.88580 0.42200
C 	C 	0.55660 0.94340 0.94340 -0.10700
C 	C 	0.61420 0.61420 0.88580 0.42200
C 	C 	0.55660 0.55660 0.94340 -0.10700
C 	C 	0.88580 0.88580 0.61420 0.42200
C 	C 	0.94340 0.94340 0.55660 -0.10700
C 	C 	0.88580 0.61420 0.88580 0.42200
C 	C 	0.94340 0.55660 0.94340 -0.10700
C 	C 	0.61420 0.88580 0.61420 0.42200
C 	C 	0.55660 0.94340 0.55660 -0.10700
O 	O 	0.25000 0.25000 0.25000 -0.94700
O 	O 	0.75000 0.75000 0.75000 -0.94700
O 	O 	0.42610 0.13570 0.30250 -0.53100
O 	O 	0.13570 0.42610 0.13570 -0.53100
O 	O 	0.30250 0.13570 0.42610 -0.53100
O 	O 	0.13570 0.30250 0.13570 -0.53100
O 	O 	0.42610 0.30250 0.13570 -0.53100
O 	O 	0.13570 0.13570 0.30250 -0.53100
O 	O 	0.30250 0.42610 0.13570 -0.53100
O 	O 	0.13570 0.13570 0.42610 -0.53100
O 	O 	0.42610 0.13570 0.13570 -0.53100
O 	O 	0.13570 0.30250 0.42610 -0.53100
O 	O 	0.30250 0.13570 0.13570 -0.53100
O 	O 	0.13570 0.42610 0.30250 -0.53100
O 	O 	0.86430 0.57390 0.69750 -0.53100
O 	O 	0.57390 0.86430 0.86430 -0.53100
O 	O 	0.86430 0.69750 0.57390 -0.53100
O 	O 	0.69750 0.86430 0.86430 -0.53100
O 	O 	0.69750 0.57390 0.86430 -0.53100
O 	O 	0.86430 0.86430 0.69750 -0.53100
O 	O 	0.57390 0.69750 0.86430 -0.53100
O 	O 	0.86430 0.86430 0.57390 -0.53100
O 	O 	0.86430 0.57390 0.86430 -0.53100
O 	O 	0.69750 0.86430 0.57390 -0.53100
O 	O 	0.86430 0.69750 0.86430 -0.53100
O 	O 	0.57390 0.86430 0.69750 -0.53100
