data_crystal

_cell_length_a 13.55100
_cell_length_b 16.18100
_cell_length_c 16.54000
_cell_angle_alpha 109.46000
_cell_angle_beta  101.21000
_cell_angle_gamma 109.75000

_symmetry_space_group_name_	'P 1'
_symmetry_space_group_name_H-M	'P 1'

loop_
_symmetry_equiv_pos_as_xyz
  x,y,z

loop_
_atom_site_label
_atom_site_type_symbol
_atom_site_fract_x
_atom_site_fract_y
_atom_site_fract_z
_atom_site_charge
Zn	Zn	0.50457 0.42315 0.82476 1.18100
Zn	Zn	0.82959 0.54317 0.42653 1.18200
Zn	Zn	0.41081 0.79647 0.48912 1.18100
Zn	Zn	0.49543 0.57685 0.17524 1.18100
Zn	Zn	0.17041 0.45683 0.57347 1.18200
Zn	Zn	0.58919 0.20353 0.51088 1.18100
H 	H 	0.87590 0.67960 0.87850 0.08800
H 	H 	0.84120 0.67100 0.73100 0.01800
H 	H 	0.65800 0.58390 0.62890 0.09000
H 	H 	0.52390 0.49190 0.66790 -0.01100
H 	H 	0.02950 0.73230 0.11080 0.08900
H 	H 	0.16830 0.87490 0.13280 0.02300
H 	H 	0.11900 0.98850 0.10110 0.07800
H 	H 	0.93500 0.94900 0.03270 0.01500
H 	H 	0.00410 0.88550 0.67840 0.09000
H 	H 	0.83850 0.89800 0.68230 0.00800
H 	H 	0.66900 0.76770 0.58530 0.08000
H 	H 	0.66790 0.62910 0.48840 -0.01300
H 	H 	0.12550 0.81820 0.78680 0.10300
H 	H 	0.21300 0.96070 0.92200 0.00200
H 	H 	0.31720 0.10420 0.91690 0.10600
H 	H 	0.34180 0.09970 0.78330 0.01800
H 	H 	0.04440 0.75570 0.28990 0.09600
H 	H 	0.98820 0.60060 0.17990 0.01000
H 	H 	0.09330 0.51780 0.19350 0.09400
H 	H 	0.25050 0.59050 0.32040 -0.01000
H 	H 	0.09580 0.95970 0.31990 0.09800
H 	H 	0.90920 0.90830 0.24200 0.00900
H 	H 	0.77640 0.82450 0.29030 0.09400
H 	H 	0.83130 0.79170 0.40910 0.01100
H 	H 	0.12410 0.32040 0.12150 0.08800
H 	H 	0.15880 0.32900 0.26900 0.01800
H 	H 	0.34200 0.41610 0.37110 0.09000
H 	H 	0.47610 0.50810 0.33210 -0.01100
H 	H 	0.97050 0.26770 0.88920 0.08900
H 	H 	0.83170 0.12510 0.86720 0.02300
H 	H 	0.88100 0.01150 0.89890 0.07800
H 	H 	0.06500 0.05100 0.96730 0.01500
H 	H 	0.99590 0.11450 0.32160 0.09000
H 	H 	0.16150 0.10200 0.31770 0.00800
H 	H 	0.33100 0.23230 0.41470 0.08000
H 	H 	0.33210 0.37090 0.51160 -0.01300
H 	H 	0.87450 0.18180 0.21320 0.10300
H 	H 	0.78700 0.03930 0.07800 0.00200
H 	H 	0.68280 0.89580 0.08310 0.10600
H 	H 	0.65820 0.90030 0.21670 0.01800
H 	H 	0.95560 0.24430 0.71010 0.09600
H 	H 	0.01180 0.39940 0.82010 0.01000
H 	H 	0.90670 0.48220 0.80650 0.09400
H 	H 	0.74950 0.40950 0.67960 -0.01000
H 	H 	0.90420 0.04030 0.68010 0.09800
H 	H 	0.09080 0.09170 0.75800 0.00900
H 	H 	0.22360 0.17550 0.70970 0.09400
H 	H 	0.16870 0.20830 0.59090 0.01100
C 	C 	0.54680 0.41210 0.00050 0.07000
C 	C 	0.72260 0.56190 0.18910 0.12400
C 	C 	0.64540 0.49930 0.01920 -0.00100
C 	C 	0.72950 0.56760 0.10290 0.00700
C 	C 	0.81530 0.65590 0.03150 0.02800
C 	C 	0.73100 0.58850 0.94690 0.01200
C 	C 	0.71820 0.59070 0.85620 0.08800
C 	C 	0.80450 0.64230 0.83500 -0.14000
C 	C 	0.78380 0.63810 0.74750 0.06800
C 	C 	0.67590 0.58400 0.68620 -0.14500
C 	C 	0.59580 0.53080 0.71050 0.09200
C 	C 	0.90550 0.75060 0.04860 0.09200
C 	C 	0.01140 0.77480 0.09170 -0.14600
C 	C 	0.09360 0.86080 0.10810 0.05700
C 	C 	0.06410 0.92770 0.08720 -0.12800
C 	C 	0.95370 0.90360 0.04610 0.06000
C 	C 	0.02990 0.51440 0.40850 0.06900
C 	C 	0.27960 0.63730 0.53710 0.11500
C 	C 	0.07750 0.61140 0.48510 0.01000
C 	C 	0.19010 0.67020 0.54140 -0.02700
C 	C 	0.14310 0.78720 0.62530 0.03000
C 	C 	0.02870 0.72860 0.57150 0.01200
C 	C 	0.92870 0.74730 0.58030 0.09100
C 	C 	0.93520 0.83340 0.64010 -0.14500
C 	C 	0.83630 0.84070 0.64210 0.07300
C 	C 	0.73580 0.76370 0.58490 -0.14800
C 	C 	0.73610 0.68140 0.52780 0.08700
C 	C 	0.18760 0.87910 0.70990 0.11000
C 	C 	0.17080 0.87650 0.78760 -0.16900
C 	C 	0.22140 0.96110 0.86770 0.09200
C 	C 	0.28410 0.04540 0.86480 -0.16100
C 	C 	0.29750 0.04200 0.78400 0.09300
C 	C 	0.50880 0.00210 0.61670 0.08400
C 	C 	0.42690 0.16200 0.62000 0.12600
C 	C 	0.39980 0.98610 0.56140 0.00500
C 	C 	0.35870 0.05470 0.56410 0.00900
C 	C 	0.18910 0.93260 0.45740 0.02700
C 	C 	0.23500 0.86510 0.44400 0.01900
C 	C 	0.18250 0.76320 0.36990 0.09000
C 	C 	0.08650 0.72160 0.29570 -0.15300
C 	C 	0.05340 0.62930 0.23010 0.08700
C 	C 	0.11440 0.58000 0.23790 -0.16100
C 	C 	0.20900 0.62480 0.31380 0.10200
C 	C 	0.06950 0.90540 0.41030 0.11200
C 	C 	0.04070 0.92560 0.33780 -0.16500
C 	C 	0.93040 0.89510 0.29160 0.08900
C 	C 	0.85190 0.84500 0.31970 -0.15200
C 	C 	0.88550 0.82560 0.39050 0.09200
C 	C 	0.45320 0.58790 0.99950 0.07000
C 	C 	0.27740 0.43810 0.81090 0.12400
C 	C 	0.35460 0.50070 0.98080 -0.00100
C 	C 	0.27050 0.43240 0.89710 0.00700
C 	C 	0.18470 0.34410 0.96850 0.02800
C 	C 	0.26900 0.41150 0.05310 0.01200
C 	C 	0.28180 0.40930 0.14380 0.08800
C 	C 	0.19550 0.35770 0.16500 -0.14000
C 	C 	0.21620 0.36190 0.25250 0.06800
C 	C 	0.32410 0.41600 0.31380 -0.14500
C 	C 	0.40420 0.46920 0.28950 0.09200
C 	C 	0.09450 0.24940 0.95140 0.09200
C 	C 	0.98860 0.22520 0.90830 -0.14600
C 	C 	0.90640 0.13920 0.89190 0.05700
C 	C 	0.93590 0.07230 0.91280 -0.12800
C 	C 	0.04630 0.09640 0.95390 0.06000
C 	C 	0.97010 0.48560 0.59150 0.06900
C 	C 	0.72040 0.36270 0.46290 0.11500
C 	C 	0.92250 0.38860 0.51490 0.01000
C 	C 	0.80990 0.32980 0.45860 -0.02700
C 	C 	0.85690 0.21280 0.37470 0.03000
C 	C 	0.97130 0.27140 0.42850 0.01200
C 	C 	0.07130 0.25270 0.41970 0.09100
C 	C 	0.06480 0.16660 0.35990 -0.14500
C 	C 	0.16370 0.15930 0.35790 0.07300
C 	C 	0.26420 0.23630 0.41510 -0.14800
C 	C 	0.26390 0.31860 0.47220 0.08700
C 	C 	0.81240 0.12090 0.29010 0.11000
C 	C 	0.82920 0.12350 0.21240 -0.16900
C 	C 	0.77860 0.03890 0.13230 0.09200
C 	C 	0.71590 0.95460 0.13520 -0.16100
C 	C 	0.70250 0.95800 0.21600 0.09300
C 	C 	0.49120 0.99790 0.38330 0.08400
C 	C 	0.57310 0.83800 0.38000 0.12600
C 	C 	0.60020 0.01390 0.43860 0.00500
C 	C 	0.64130 0.94530 0.43590 0.00900
C 	C 	0.81090 0.06740 0.54260 0.02700
C 	C 	0.76500 0.13490 0.55600 0.01900
C 	C 	0.81750 0.23680 0.63010 0.09000
C 	C 	0.91350 0.27840 0.70430 -0.15300
C 	C 	0.94660 0.37070 0.76990 0.08700
C 	C 	0.88560 0.42000 0.76210 -0.16100
C 	C 	0.79100 0.37520 0.68620 0.10200
C 	C 	0.93050 0.09460 0.58970 0.11200
C 	C 	0.95930 0.07440 0.66220 -0.16500
C 	C 	0.06960 0.10490 0.70840 0.08900
C 	C 	0.14810 0.15500 0.68030 -0.15200
C 	C 	0.11450 0.17440 0.60950 0.09200
N 	N 	0.47000 0.36410 0.91770 -0.21600
N 	N 	0.39190 0.28830 0.92000 -0.05000
N 	N 	0.42250 0.29160 0.00220 -0.04900
N 	N 	0.52210 0.37110 0.05560 -0.10000
N 	N 	0.64010 0.56720 0.21980 -0.23600
N 	N 	0.66330 0.56210 0.29970 -0.08100
N 	N 	0.75740 0.55400 0.31440 -0.19300
N 	N 	0.79740 0.55340 0.24620 -0.10100
N 	N 	0.64780 0.51260 0.94360 -0.22700
N 	N 	0.81430 0.64330 0.10760 -0.10500
N 	N 	0.61720 0.53260 0.79380 -0.24600
N 	N 	0.86900 0.81310 0.02400 -0.12200
N 	N 	0.91880 0.46850 0.36960 -0.21200
N 	N 	0.89840 0.38370 0.30190 -0.04800
N 	N 	0.99520 0.38030 0.30270 -0.05400
N 	N 	0.08070 0.46340 0.37140 -0.10800
N 	N 	0.37470 0.68590 0.52780 -0.23900
N 	N 	0.43750 0.63730 0.53480 -0.06300
N 	N 	0.38240 0.56310 0.54930 -0.06500
N 	N 	0.28150 0.56130 0.55080 -0.23700
N 	N 	0.00120 0.64290 0.50130 -0.22100
N 	N 	0.22100 0.75820 0.60860 -0.11100
N 	N 	0.83040 0.67170 0.52520 -0.24900
N 	N 	0.25020 0.96000 0.70580 -0.13300
N 	N 	0.53300 0.92630 0.60040 -0.22000
N 	N 	0.63770 0.96130 0.65760 -0.05400
N 	N 	0.67250 0.05530 0.70710 -0.04900
N 	N 	0.59100 0.08400 0.68180 -0.09500
N 	N 	0.41410 0.21290 0.69460 -0.10600
N 	N 	0.48750 0.30500 0.71940 -0.19400
N 	N 	0.54030 0.30930 0.66210 -0.08300
N 	N 	0.50370 0.21840 0.59780 -0.24100
N 	N 	0.33760 0.89370 0.49930 -0.22600
N 	N 	0.25270 0.02720 0.51430 -0.10000
N 	N 	0.24510 0.71460 0.37880 -0.24100
N 	N 	0.99470 0.85320 0.43620 -0.13600
N 	N 	0.53000 0.63590 0.08230 -0.21600
N 	N 	0.60810 0.71170 0.08000 -0.05000
N 	N 	0.57750 0.70840 0.99780 -0.04900
N 	N 	0.47790 0.62890 0.94440 -0.10000
N 	N 	0.35990 0.43280 0.78020 -0.23600
N 	N 	0.33670 0.43790 0.70030 -0.08100
N 	N 	0.24260 0.44600 0.68560 -0.19300
N 	N 	0.20260 0.44660 0.75380 -0.10100
N 	N 	0.35220 0.48740 0.05640 -0.22700
N 	N 	0.18570 0.35670 0.89240 -0.10500
N 	N 	0.38280 0.46740 0.20620 -0.24600
N 	N 	0.13100 0.18690 0.97600 -0.12200
N 	N 	0.08120 0.53150 0.63040 -0.21200
N 	N 	0.10160 0.61630 0.69810 -0.04800
N 	N 	0.00480 0.61970 0.69730 -0.05400
N 	N 	0.91930 0.53660 0.62860 -0.10800
N 	N 	0.62530 0.31410 0.47220 -0.23900
N 	N 	0.56250 0.36270 0.46520 -0.06300
N 	N 	0.61760 0.43690 0.45070 -0.06500
N 	N 	0.71850 0.43870 0.44920 -0.23700
N 	N 	0.99880 0.35710 0.49870 -0.22100
N 	N 	0.77900 0.24180 0.39140 -0.11100
N 	N 	0.16960 0.32830 0.47480 -0.24900
N 	N 	0.74980 0.04000 0.29420 -0.13300
N 	N 	0.46700 0.07370 0.39960 -0.22000
N 	N 	0.36230 0.03870 0.34240 -0.05400
N 	N 	0.32750 0.94470 0.29290 -0.04900
N 	N 	0.40900 0.91600 0.31820 -0.09500
N 	N 	0.58590 0.78710 0.30540 -0.10600
N 	N 	0.51250 0.69500 0.28060 -0.19400
N 	N 	0.45970 0.69070 0.33790 -0.08300
N 	N 	0.49630 0.78160 0.40220 -0.24100
N 	N 	0.66240 0.10630 0.50070 -0.22600
N 	N 	0.74730 0.97280 0.48570 -0.10000
N 	N 	0.75490 0.28540 0.62120 -0.24100
N 	N 	0.00530 0.14680 0.56380 -0.13600
