data_crystal

_cell_length_a 9.33410
_cell_length_b 9.75800
_cell_length_c 12.86200
_cell_angle_alpha 111.83000
_cell_angle_beta  104.59000
_cell_angle_gamma 91.64000

_symmetry_space_group_name_	'P 1'
_symmetry_space_group_name_H-M	'P 1'

loop_
_symmetry_equiv_pos_as_xyz
  x,y,z

loop_
_atom_site_label
_atom_site_type_symbol
_atom_site_fract_x
_atom_site_fract_y
_atom_site_fract_z
_atom_site_charge
Zn	Zn	0.34426 0.54385 0.72197 1.15600
Zn	Zn	0.65574 0.45615 0.27803 1.15600
H 	H 	0.92830 0.78600 0.31660 0.25700
H 	H 	0.12750 0.93020 0.86190 0.23100
H 	H 	0.21390 0.67170 0.06850 0.04300
H 	H 	0.92650 0.33110 0.80600 0.04900
H 	H 	0.35590 0.66810 0.54520 -0.05500
H 	H 	0.23080 0.81100 0.45470 0.07400
H 	H 	0.90280 0.78530 0.59730 0.06500
H 	H 	0.03550 0.64210 0.68340 -0.00100
H 	H 	0.45860 0.87830 0.83240 -0.02400
H 	H 	0.67770 0.03960 0.91890 0.09500
H 	H 	0.89780 0.68520 0.85100 0.11000
H 	H 	0.67430 0.53630 0.77320 -0.05000
H 	H 	0.07170 0.21400 0.68340 0.25800
H 	H 	0.87250 0.06980 0.13810 0.23200
H 	H 	0.78610 0.32830 0.93150 0.04400
H 	H 	0.07350 0.66890 0.19400 0.05000
H 	H 	0.64410 0.33190 0.45480 -0.05500
H 	H 	0.76920 0.18900 0.54530 0.07400
H 	H 	0.09720 0.21470 0.40270 0.06500
H 	H 	0.96450 0.35790 0.31660 -0.00100
H 	H 	0.54140 0.12170 0.16760 -0.02400
H 	H 	0.32230 0.96040 0.08110 0.09500
H 	H 	0.10220 0.31480 0.14900 0.11000
H 	H 	0.32570 0.46370 0.22680 -0.05000
C 	C 	0.17280 0.50580 0.84220 0.30000
C 	C 	0.08570 0.50160 0.92600 -0.05700
C 	C 	0.12840 0.60270 0.04120 -0.02500
C 	C 	0.95600 0.39830 0.88350 -0.03700
C 	C 	0.26460 0.69390 0.55730 0.07800
C 	C 	0.18980 0.77990 0.50240 -0.13800
C 	C 	0.05240 0.81950 0.51910 0.06100
C 	C 	0.99590 0.76470 0.58640 -0.13700
C 	C 	0.07650 0.67880 0.63860 0.07000
C 	C 	0.96960 0.91980 0.46530 0.08800
C 	C 	0.54840 0.83900 0.83700 0.09400
C 	C 	0.67990 0.93730 0.88880 -0.16600
C 	C 	0.81590 0.88040 0.89500 0.09400
C 	C 	0.81000 0.72800 0.84940 -0.16900
C 	C 	0.67470 0.63900 0.80160 0.08900
C 	C 	0.97970 0.97690 0.93700 0.07700
C 	C 	0.82720 0.49420 0.15780 0.30000
C 	C 	0.91430 0.49840 0.07400 -0.05700
C 	C 	0.87160 0.39730 0.95880 -0.02500
C 	C 	0.04400 0.60170 0.11650 -0.03700
C 	C 	0.73540 0.30610 0.44270 0.07800
C 	C 	0.81020 0.22010 0.49760 -0.13800
C 	C 	0.94760 0.18050 0.48090 0.06100
C 	C 	0.00410 0.23530 0.41360 -0.13700
C 	C 	0.92350 0.32120 0.36140 0.07000
C 	C 	0.03040 0.08020 0.53470 0.08800
C 	C 	0.45160 0.16100 0.16300 0.09400
C 	C 	0.32010 0.06270 0.11120 -0.16600
C 	C 	0.18410 0.11960 0.10500 0.09400
C 	C 	0.19000 0.27200 0.15060 -0.16900
C 	C 	0.32530 0.36100 0.19840 0.08900
C 	C 	0.02030 0.02310 0.06300 0.07700
N 	N 	0.21180 0.64680 0.62650 -0.28000
N 	N 	0.54310 0.69090 0.79330 -0.28900
N 	N 	0.78820 0.35320 0.37350 -0.28000
N 	N 	0.45690 0.30910 0.20670 -0.28900
O 	O 	0.13020 0.41780 0.73730 -0.40300
O 	O 	0.28700 0.60260 0.87870 -0.42800
O 	O 	0.95750 0.87570 0.34990 -0.39900
O 	O 	0.08240 0.88750 0.89070 -0.37500
O 	O 	0.86980 0.58220 0.26270 -0.40300
O 	O 	0.71300 0.39740 0.12130 -0.42800
O 	O 	0.04250 0.12430 0.65010 -0.39900
O 	O 	0.91760 0.11250 0.10930 -0.37500
