data_crystal

_cell_length_a 6.65254
_cell_length_b 11.10940
_cell_length_c 11.10940
_cell_angle_alpha 74.02210
_cell_angle_beta  72.58000
_cell_angle_gamma 72.58000

_symmetry_space_group_name_	'P 1'
_symmetry_space_group_name_H-M	'P 1'

loop_
_symmetry_equiv_pos_as_xyz
  x,y,z

loop_
_atom_site_label
_atom_site_type_symbol
_atom_site_fract_x
_atom_site_fract_y
_atom_site_fract_z
_atom_site_charge
Al	Al	0.49881 0.49780 0.99697 2.39000
Al	Al	0.99906 0.49787 0.99691 2.38700
H 	H 	0.73469 0.88300 0.99372 0.10300
H 	H 	0.76294 0.50256 0.61130 0.01200
H 	H 	0.88172 0.49393 0.38209 0.04000
H 	H 	0.61578 0.11216 0.00250 -0.00900
H 	H 	0.26251 0.11210 0.00254 -0.00900
H 	H 	0.23476 0.49447 0.38209 0.07500
H 	H 	0.11596 0.50311 0.61129 0.04800
H 	H 	0.38140 0.88292 0.99376 0.09300
H 	H 	0.24919 0.37934 0.11452 0.36800
H 	H 	0.74929 0.61551 0.87853 0.46900
C 	C 	0.85221 0.93163 0.99513 -0.50200
C 	C 	0.64549 0.50096 0.56274 0.00900
C 	C 	0.71418 0.49542 0.43074 -0.00300
C 	C 	0.78343 0.06362 0.00072 0.46200
C 	C 	0.14514 0.06358 0.00072 0.50300
C 	C 	0.35230 0.49575 0.43077 0.00500
C 	C 	0.28362 0.50128 0.56276 0.01700
C 	C 	0.21392 0.93159 0.99513 -0.43100
C 	C 	0.06909 0.86303 0.99183 0.15700
C 	C 	0.14151 0.72069 0.98923 0.48600
C 	C 	0.42895 0.50389 0.63149 -0.13900
C 	C 	0.35679 0.50572 0.77400 0.50900
C 	C 	0.56918 0.49243 0.36215 -0.09000
C 	C 	0.64149 0.49003 0.21979 0.50700
C 	C 	0.92866 0.13235 0.00349 -0.39400
C 	C 	0.85657 0.27488 0.00514 0.61500
O 	O 	0.34155 0.66230 0.98936 -0.77500
O 	O 	0.15666 0.50544 0.83242 -0.73700
O 	O 	0.49950 0.49022 0.16142 -0.54000
O 	O 	0.99848 0.33332 0.00460 -0.59500
O 	O 	0.65650 0.33332 0.00472 -0.56000
O 	O 	0.84148 0.49012 0.16138 -0.56300
O 	O 	0.49865 0.50520 0.83244 -0.77700
O 	O 	0.99947 0.66239 0.98927 -0.83800
O 	O 	0.24909 0.44416 0.05052 -0.90900
O 	O 	0.74895 0.55140 0.94322 -1.38400
