data_crystal

_cell_length_a 7.39370
_cell_length_b 10.96230
_cell_length_c 12.63310
_cell_angle_alpha 109.51000
_cell_angle_beta  90.00000
_cell_angle_gamma 90.00000

_symmetry_space_group_name_	'P 1'
_symmetry_space_group_name_H-M	'P 1'

loop_
_symmetry_equiv_pos_as_xyz
  x,y,z

loop_
_atom_site_label
_atom_site_type_symbol
_atom_site_fract_x
_atom_site_fract_y
_atom_site_fract_z
_atom_site_charge
Zn	Zn	-0.00000 0.00000 -0.00000 1.12000
H 	H 	0.22970 0.61020 0.01950 0.11600
H 	H 	0.22970 0.38980 0.98050 -0.01800
H 	H 	0.77030 0.38980 0.98050 0.00600
H 	H 	0.77030 0.61020 0.01950 0.14100
H 	H 	0.00000 0.96260 0.75000 0.01200
H 	H 	0.00000 0.81010 0.57590 0.10000
H 	H 	-0.00000 0.53800 0.72200 0.08100
H 	H 	0.00000 0.70060 0.89620 -0.00900
H 	H 	0.00000 0.03740 0.25000 -0.06800
H 	H 	0.00000 0.18990 0.42410 0.07300
H 	H 	-0.00000 0.46200 0.27800 0.08400
H 	H 	-0.00000 0.29940 0.10380 -0.05200
C 	C 	0.34050 0.84531 0.05430 0.16300
C 	C 	0.33920 0.56640 0.01190 -0.31500
C 	C 	0.34050 0.15469 0.94570 0.10600
C 	C 	0.33920 0.43360 0.98810 0.16900
C 	C 	0.65950 0.15469 0.94570 0.11600
C 	C 	0.66080 0.43360 0.98810 0.17100
C 	C 	0.65950 0.84531 0.05430 0.17400
C 	C 	0.66080 0.56640 0.01190 -0.30800
C 	C 	0.50000 0.77720 0.04740 -0.20300
C 	C 	0.50000 0.63560 0.02470 0.23000
C 	C 	0.50000 0.22280 0.95260 -0.08000
C 	C 	0.50000 0.36440 0.97530 -0.07400
C 	C 	-0.00000 0.87580 0.74450 0.10200
C 	C 	0.00000 0.78450 0.63910 -0.16100
C 	C 	0.00000 0.65460 0.62690 0.10300
C 	C 	-0.00000 0.56200 0.51080 -0.03600
C 	C 	-0.00000 0.62420 0.72590 -0.15300
C 	C 	0.00000 0.72250 0.83120 0.08700
C 	C 	-0.00000 0.12420 0.25550 0.08800
C 	C 	0.00000 0.21550 0.36090 -0.18800
C 	C 	-0.00000 0.34540 0.37310 0.10500
C 	C 	-0.00000 0.43800 0.48920 -0.05300
C 	C 	0.00000 0.37580 0.27410 -0.17500
C 	C 	-0.00000 0.27750 0.16880 0.07500
N 	N 	0.20580 0.90083 0.06020 -0.25800
N 	N 	0.20580 0.09917 0.93980 -0.27500
N 	N 	0.79420 0.09917 0.93980 -0.24500
N 	N 	0.79420 0.90083 0.06020 -0.22800
N 	N 	-0.00000 0.84800 0.83930 -0.23100
N 	N 	-0.00000 0.15200 0.16070 -0.29200
