data_crystal

_cell_length_a 6.39640
_cell_length_b 8.98420
_cell_length_c 26.37600
_cell_angle_alpha 90.00000
_cell_angle_beta  90.00000
_cell_angle_gamma 90.00000

_symmetry_space_group_name_	'P 1'
_symmetry_space_group_name_H-M	'P 1'

loop_
_symmetry_equiv_pos_as_xyz
  x,y,z

loop_
_atom_site_label
_atom_site_type_symbol
_atom_site_fract_x
_atom_site_fract_y
_atom_site_fract_z
_atom_site_charge
Zn	Zn	0.00000 0.00000 0.71344 1.18400
Zn	Zn	0.50000 -0.00000 0.78656 1.19800
Zn	Zn	-0.00000 0.00000 0.28656 1.18400
Zn	Zn	0.50000 0.00000 0.21344 1.19800
H 	H 	0.75010 0.87840 0.62560 0.04400
H 	H 	0.74520 0.87390 0.53940 0.08400
H 	H 	0.25010 0.12160 0.87440 0.04200
H 	H 	0.24520 0.12610 0.96060 0.08400
H 	H 	0.74990 0.87840 0.87440 0.05500
H 	H 	0.75480 0.87390 0.96060 0.10100
H 	H 	0.24990 0.12160 0.62560 0.05500
H 	H 	0.25480 0.12610 0.53940 0.08800
H 	H 	0.24990 0.12160 0.37440 0.05500
H 	H 	0.25480 0.12610 0.46060 0.08800
H 	H 	0.74990 0.87840 0.12560 0.05500
H 	H 	0.75480 0.87390 0.03940 0.10100
H 	H 	0.25010 0.12160 0.12560 0.04200
H 	H 	0.24520 0.12610 0.03940 0.08400
H 	H 	0.75010 0.87840 0.37440 0.04400
H 	H 	0.74520 0.87390 0.46060 0.08400
C 	C 	0.75460 0.49230 0.79427 0.35400
C 	C 	0.75840 0.33850 0.79435 0.15300
C 	C 	0.85450 0.92890 0.60809 0.25800
C 	C 	0.85010 0.92610 0.55611 0.10300
C 	C 	0.25460 0.50770 0.70573 0.34200
C 	C 	0.25840 0.66150 0.70565 0.15100
C 	C 	0.35450 0.07110 0.89191 0.07900
C 	C 	0.35010 0.07390 0.94389 -0.08200
C 	C 	0.74540 0.49230 0.70573 0.35400
C 	C 	0.74160 0.33850 0.70565 0.15300
C 	C 	0.64550 0.92890 0.89191 0.23200
C 	C 	0.64990 0.92610 0.94389 0.05300
C 	C 	0.24540 0.50770 0.79427 0.34200
C 	C 	0.24160 0.66150 0.79435 0.15100
C 	C 	0.14550 0.07110 0.60809 0.06200
C 	C 	0.14990 0.07390 0.55611 -0.06600
C 	C 	0.24540 0.50770 0.20573 0.34200
C 	C 	0.24160 0.66150 0.20565 0.15100
C 	C 	0.14550 0.07110 0.39191 0.06200
C 	C 	0.14990 0.07390 0.44389 -0.06600
C 	C 	0.74540 0.49230 0.29427 0.35400
C 	C 	0.74160 0.33850 0.29435 0.15300
C 	C 	0.64550 0.92890 0.10809 0.23200
C 	C 	0.64990 0.92610 0.05611 0.05300
C 	C 	0.25460 0.50770 0.29427 0.34200
C 	C 	0.25840 0.66150 0.29435 0.15100
C 	C 	0.35450 0.07110 0.10809 0.07900
C 	C 	0.35010 0.07390 0.05611 -0.08200
C 	C 	0.75460 0.49230 0.20573 0.35400
C 	C 	0.75840 0.33850 0.20565 0.15300
C 	C 	0.85450 0.92890 0.39191 0.25800
C 	C 	0.85010 0.92610 0.44389 0.10300
C 	C 	0.00000 0.00000 0.52860 -0.09300
C 	C 	0.50000 -0.00000 0.97140 -0.04600
C 	C 	-0.00000 -0.00000 0.47140 -0.09300
C 	C 	0.50000 0.00000 0.02860 -0.04600
C 	C 	0.75000 0.74330 0.75000 0.47500
C 	C 	0.75000 0.57540 0.75000 -0.26800
C 	C 	0.75000 0.25540 0.75000 0.07600
C 	C 	0.25000 0.25670 0.75000 0.48300
C 	C 	0.25000 0.42460 0.75000 -0.28900
C 	C 	0.25000 0.74460 0.75000 0.05400
C 	C 	0.25000 0.25670 0.25000 0.48300
C 	C 	0.25000 0.42460 0.25000 -0.28900
C 	C 	0.25000 0.74460 0.25000 0.05400
C 	C 	0.75000 0.74330 0.25000 0.47500
C 	C 	0.75000 0.57540 0.25000 -0.26800
C 	C 	0.75000 0.25540 0.25000 0.07600
N 	N 	-0.00000 -0.00000 0.63475 -0.31700
N 	N 	0.50000 0.00000 0.86525 -0.29200
N 	N 	0.00000 -0.00000 0.36525 -0.31700
N 	N 	0.50000 0.00000 0.13475 -0.29200
O 	O 	0.83620 0.80610 0.71311 -0.35400
O 	O 	0.33620 0.19390 0.78689 -0.44600
O 	O 	0.66380 0.80610 0.78689 -0.36800
O 	O 	0.16380 0.19390 0.71311 -0.45400
O 	O 	0.16380 0.19390 0.28689 -0.45400
O 	O 	0.66380 0.80610 0.21311 -0.36800
O 	O 	0.33620 0.19390 0.21311 -0.44600
O 	O 	0.83620 0.80610 0.28689 -0.35400
O 	O 	0.75000 0.10610 0.75000 -0.46800
O 	O 	0.25000 0.89390 0.75000 -0.36400
O 	O 	0.25000 0.89390 0.25000 -0.36400
O 	O 	0.75000 0.10610 0.25000 -0.46800
F 	F 	0.76380 0.56050 0.83999 -0.35000
F 	F 	0.77060 0.26630 0.83917 -0.37500
F 	F 	0.26380 0.43950 0.66001 -0.36800
F 	F 	0.27060 0.73370 0.66083 -0.35400
F 	F 	0.73620 0.56050 0.66001 -0.35100
F 	F 	0.72940 0.26630 0.66083 -0.37500
F 	F 	0.23620 0.43950 0.83999 -0.37100
F 	F 	0.22940 0.73370 0.83917 -0.35900
F 	F 	0.23620 0.43950 0.16001 -0.37100
F 	F 	0.22940 0.73370 0.16083 -0.35900
F 	F 	0.73620 0.56050 0.33999 -0.35100
F 	F 	0.72940 0.26630 0.33917 -0.37500
F 	F 	0.26380 0.43950 0.33999 -0.36800
F 	F 	0.27060 0.73370 0.33917 -0.35400
F 	F 	0.76380 0.56050 0.16001 -0.35000
F 	F 	0.77060 0.26630 0.16083 -0.37500
