data_crystal

_cell_length_a 9.82400
_cell_length_b 9.96300
_cell_length_c 10.15000
_cell_angle_alpha 74.04400
_cell_angle_beta  86.36100
_cell_angle_gamma 78.32800

_symmetry_space_group_name_	'P 1'
_symmetry_space_group_name_H-M	'P 1'

loop_
_symmetry_equiv_pos_as_xyz
  x,y,z

loop_
_atom_site_label
_atom_site_type_symbol
_atom_site_fract_x
_atom_site_fract_y
_atom_site_fract_z
_atom_site_charge
Ca	Ca	0.50784 0.87968 0.88347 1.51500
Ca	Ca	0.49216 0.12032 0.11653 1.48600
Ca	Ca	0.50000 0.00000 0.50000 1.46900
H 	H 	0.30860 0.72120 0.52700 0.06500
H 	H 	0.32760 0.31400 0.53040 0.00600
H 	H 	0.48850 0.40730 0.84210 0.01000
H 	H 	0.27400 0.41630 0.30360 0.05200
H 	H 	0.13540 0.41730 0.39040 0.05800
H 	H 	0.26380 0.53550 0.06240 0.11000
H 	H 	0.13190 0.65690 0.86990 0.00500
H 	H 	0.80260 0.74040 0.10770 -0.01700
H 	H 	0.93120 0.61500 0.29880 0.10800
H 	H 	0.69140 0.27880 0.47300 0.02700
H 	H 	0.67240 0.68600 0.46960 0.02800
H 	H 	0.51150 0.59270 0.15790 0.01400
H 	H 	0.72600 0.58370 0.69640 0.05900
H 	H 	0.86460 0.58270 0.60960 0.07000
H 	H 	0.73620 0.46450 0.93760 0.10700
H 	H 	0.86810 0.34310 0.13010 -0.00700
H 	H 	0.19740 0.25960 0.89230 -0.04300
H 	H 	0.06880 0.38500 0.70120 0.10400
C 	C 	0.44880 0.68700 0.75308 0.35800
C 	C 	0.40610 0.58040 0.69218 -0.09600
C 	C 	0.33470 0.62470 0.56995 -0.06100
C 	C 	0.30180 0.52440 0.51115 0.11700
C 	C 	0.34550 0.38100 0.57186 -0.03700
C 	C 	0.41660 0.33720 0.69593 -0.16200
C 	C 	0.44450 0.43670 0.75764 0.06100
C 	C 	0.46530 0.18230 0.75924 0.45300
C 	C 	0.19130 0.47690 0.32750 -0.09300
C 	C 	0.11000 0.56060 0.20120 0.15800
C 	C 	0.17060 0.57500 0.07170 -0.20500
C 	C 	0.09140 0.64870 0.95640 0.11800
C 	C 	0.95290 0.71030 0.96790 -0.17500
C 	C 	0.86600 0.78570 0.84300 0.40600
C 	C 	0.89470 0.69790 0.09800 0.11600
C 	C 	0.97210 0.62340 0.21250 -0.19700
C 	C 	0.55120 0.31300 0.24692 0.37400
C 	C 	0.59390 0.41960 0.30782 -0.11400
C 	C 	0.66530 0.37530 0.43005 -0.05200
C 	C 	0.69820 0.47560 0.48885 0.11500
C 	C 	0.65450 0.61900 0.42814 -0.04900
C 	C 	0.58340 0.66280 0.30407 -0.13700
C 	C 	0.55550 0.56330 0.24236 0.05800
C 	C 	0.53470 0.81770 0.24076 0.42800
C 	C 	0.80870 0.52310 0.67250 -0.09900
C 	C 	0.89000 0.43940 0.79880 0.14900
C 	C 	0.82940 0.42500 0.92830 -0.19900
C 	C 	0.90860 0.35130 0.04360 0.09300
C 	C 	0.04710 0.28970 0.03210 -0.22000
C 	C 	0.13400 0.21430 0.15700 0.41200
C 	C 	0.10530 0.30210 0.90200 0.13300
C 	C 	0.02790 0.37660 0.78750 -0.21700
O 	O 	0.92337 0.80000 0.72795 -0.27600
O 	O 	0.73903 0.83190 0.85916 -0.47300
O 	O 	0.22925 0.57804 0.39044 -0.18500
O 	O 	0.45413 0.81078 0.67615 -0.56400
O 	O 	0.47986 0.65121 0.87626 -0.43400
O 	O 	0.47942 0.09606 0.68608 -0.70000
O 	O 	0.49201 0.13759 0.88544 -0.66900
O 	O 	0.07663 0.20000 0.27205 -0.34700
O 	O 	0.26097 0.16810 0.14084 -0.55700
O 	O 	0.77075 0.42196 0.60956 -0.20300
O 	O 	0.54587 0.18922 0.32385 -0.65700
O 	O 	0.52014 0.34879 0.12374 -0.46300
O 	O 	0.52058 0.90394 0.31392 -0.56600
O 	O 	0.50799 0.86241 0.11456 -0.56800
