data_crystal

_cell_length_a 9.81000
_cell_length_b 18.57100
_cell_length_c 20.23090
_cell_angle_alpha 80.76480
_cell_angle_beta  75.96870
_cell_angle_gamma 74.68520

_symmetry_space_group_name_	'P 1'
_symmetry_space_group_name_H-M	'P 1'

loop_
_symmetry_equiv_pos_as_xyz
  x,y,z

loop_
_atom_site_label
_atom_site_type_symbol
_atom_site_fract_x
_atom_site_fract_y
_atom_site_fract_z
_atom_site_charge
Zn	Zn	0.66214 0.59989 0.82101 1.19100
Zn	Zn	0.08304 0.90011 0.67899 1.19100
Zn	Zn	0.33786 0.40011 0.17899 1.19100
Zn	Zn	0.91696 0.09989 0.32101 1.19100
Zn	Zn	0.00889 0.75000 0.25000 1.20900
Zn	Zn	0.99111 0.25000 0.75000 1.20900
H 	H 	0.16660 0.23700 0.88820 0.14000
H 	H 	0.90060 0.54910 0.19930 0.08800
H 	H 	0.89270 0.42160 0.20740 0.05300
H 	H 	0.74140 0.47280 0.23600 0.04800
H 	H 	0.78710 0.36370 0.31310 0.05800
H 	H 	0.92980 0.38230 0.32010 0.06600
H 	H 	0.74760 0.41900 0.41420 0.05100
H 	H 	0.64900 0.46970 0.36570 0.05100
H 	H 	0.90900 0.49630 0.38310 0.07500
H 	H 	0.75410 0.54680 0.40700 0.06300
H 	H 	0.73110 0.58320 0.29460 0.06500
H 	H 	0.42640 0.55840 0.93660 -0.01800
H 	H 	0.28320 0.47550 0.96750 0.08200
H 	H 	0.48710 0.38110 0.79510 0.08100
H 	H 	0.62960 0.46430 0.77090 -0.01200
H 	H 	0.01850 0.18340 0.97660 0.09600
H 	H 	0.84280 0.14690 0.06350 0.00900
H 	H 	0.78250 0.32460 0.15360 0.00100
H 	H 	0.95770 0.36720 0.07120 0.08100
H 	H 	0.13480 0.65170 0.14030 0.00100
H 	H 	0.30430 0.63930 0.04070 0.07900
H 	H 	0.43800 0.81180 0.07840 0.08600
H 	H 	0.25810 0.82210 0.17570 -0.02000
H 	H 	0.76210 0.85190 0.90670 0.07300
H 	H 	0.91910 0.91010 0.82890 0.00500
H 	H 	0.99530 0.75750 0.70390 -0.00700
H 	H 	0.83600 0.69630 0.77910 0.02500
H 	H 	0.29180 0.26300 0.61180 0.14100
H 	H 	0.64900 0.95090 0.30070 0.08700
H 	H 	0.52170 0.07840 0.29260 0.05500
H 	H 	0.45020 0.02720 0.26400 0.05100
H 	H 	0.46390 0.13630 0.18690 0.05700
H 	H 	0.63220 0.11770 0.17990 0.06500
H 	H 	0.58080 0.08100 0.08580 0.05300
H 	H 	0.48440 0.03030 0.13430 0.05300
H 	H 	0.78840 0.00370 0.11690 0.07100
H 	H 	0.70790 0.95320 0.09300 0.06000
H 	H 	0.60890 0.91680 0.20540 0.06600
H 	H 	0.92140 0.94160 0.56340 -0.01800
H 	H 	0.72620 0.02450 0.53250 0.08300
H 	H 	0.66330 0.11890 0.70490 0.08100
H 	H 	0.86480 0.03570 0.72910 -0.01200
H 	H 	0.17850 0.31660 0.52340 0.09300
H 	H 	0.05320 0.35310 0.43650 0.01000
H 	H 	0.26070 0.17540 0.34640 0.00100
H 	H 	0.39610 0.13280 0.42880 0.08100
H 	H 	0.92680 0.84830 0.35970 0.00400
H 	H 	0.98430 0.86070 0.45930 0.08300
H 	H 	0.32820 0.68820 0.42160 0.08600
H 	H 	0.25590 0.67790 0.32430 -0.02000
H 	H 	0.52070 0.64810 0.59330 0.07300
H 	H 	0.65810 0.58990 0.67110 0.00400
H 	H 	0.45670 0.74250 0.79610 -0.00700
H 	H 	0.31140 0.80370 0.72090 0.02500
H 	H 	0.83340 0.76300 0.11180 0.14100
H 	H 	0.09940 0.45090 0.80070 0.08900
H 	H 	0.10730 0.57840 0.79260 0.05400
H 	H 	0.25860 0.52720 0.76400 0.04900
H 	H 	0.21290 0.63630 0.68690 0.05900
H 	H 	0.07020 0.61770 0.67990 0.06700
H 	H 	0.25240 0.58100 0.58580 0.05100
H 	H 	0.35100 0.53030 0.63430 0.05100
H 	H 	0.09100 0.50370 0.61690 0.07500
H 	H 	0.24590 0.45320 0.59300 0.06300
H 	H 	0.26890 0.41680 0.70540 0.06500
H 	H 	0.57360 0.44160 0.06340 -0.01800
H 	H 	0.71680 0.52450 0.03250 0.08200
H 	H 	0.51290 0.61890 0.20490 0.08100
H 	H 	0.37040 0.53570 0.22910 -0.01200
H 	H 	0.98150 0.81660 0.02340 0.09600
H 	H 	0.15720 0.85310 0.93650 0.00900
H 	H 	0.21750 0.67540 0.84640 0.00100
H 	H 	0.04230 0.63280 0.92880 0.08100
H 	H 	0.86520 0.34830 0.85970 0.00100
H 	H 	0.69570 0.36070 0.95930 0.07900
H 	H 	0.56200 0.18820 0.92160 0.08600
H 	H 	0.74190 0.17790 0.82430 -0.02000
H 	H 	0.23790 0.14810 0.09330 0.07300
H 	H 	0.08090 0.08990 0.17110 0.00500
H 	H 	0.00470 0.24250 0.29610 -0.00700
H 	H 	0.16400 0.30370 0.22090 0.02500
H 	H 	0.70820 0.73700 0.38820 0.14100
H 	H 	0.35100 0.04910 0.69930 0.08700
H 	H 	0.47830 0.92160 0.70740 0.05500
H 	H 	0.54980 0.97280 0.73600 0.05100
H 	H 	0.53610 0.86370 0.81310 0.05700
H 	H 	0.36780 0.88230 0.82010 0.06500
H 	H 	0.41920 0.91900 0.91420 0.05300
H 	H 	0.51560 0.96970 0.86570 0.05300
H 	H 	0.21160 0.99630 0.88310 0.07100
H 	H 	0.29210 0.04680 0.90700 0.06000
H 	H 	0.39110 0.08320 0.79460 0.06600
H 	H 	0.07860 0.05840 0.43660 -0.01800
H 	H 	0.27380 0.97550 0.46750 0.08300
H 	H 	0.33670 0.88110 0.29510 0.08100
H 	H 	0.13520 0.96430 0.27090 -0.01200
H 	H 	0.82150 0.68340 0.47660 0.09300
H 	H 	0.94680 0.64690 0.56350 0.01000
H 	H 	0.73930 0.82460 0.65360 0.00100
H 	H 	0.60390 0.86720 0.57120 0.08100
H 	H 	0.07320 0.15170 0.64030 0.00400
H 	H 	0.01570 0.13930 0.54070 0.08300
H 	H 	0.67180 0.31180 0.57840 0.08600
H 	H 	0.74410 0.32210 0.67570 -0.02000
H 	H 	0.47930 0.35190 0.40670 0.07300
H 	H 	0.34190 0.41010 0.32890 0.00400
H 	H 	0.54330 0.25750 0.20390 -0.00700
H 	H 	0.68860 0.19630 0.27910 0.02500
C 	C 	0.06930 0.48690 0.24110 0.36100
C 	C 	0.91000 0.51660 0.24200 -0.12100
C 	C 	0.83850 0.45260 0.24380 -0.05900
C 	C 	0.83240 0.40420 0.31320 -0.10500
C 	C 	0.74820 0.45050 0.37090 -0.07400
C 	C 	0.81460 0.51560 0.37180 -0.09200
C 	C 	0.83010 0.56390 0.30190 -0.09100
C 	C 	0.88240 0.63150 0.30230 0.32500
C 	C 	0.43830 0.52200 0.90780 0.08100
C 	C 	0.35160 0.47240 0.92660 -0.14000
C 	C 	0.36560 0.41740 0.88460 0.06200
C 	C 	0.47280 0.41660 0.82520 -0.13700
C 	C 	0.55700 0.46720 0.81040 0.07400
C 	C 	0.27550 0.36410 0.90410 0.08700
C 	C 	0.12130 0.30690 0.96010 0.11200
C 	C 	0.00810 0.28020 0.01420 0.05100
C 	C 	0.97270 0.21300 0.01220 -0.13800
C 	C 	0.86660 0.19180 0.06500 0.08000
C 	C 	0.83150 0.29550 0.11790 0.07300
C 	C 	0.93620 0.32220 0.06820 -0.12900
C 	C 	0.19540 0.68480 0.12740 0.07000
C 	C 	0.29730 0.67690 0.06750 -0.12500
C 	C 	0.38940 0.72500 0.04680 0.06100
C 	C 	0.37610 0.77940 0.08940 -0.13400
C 	C 	0.26860 0.78440 0.14840 0.08500
C 	C 	0.50020 0.71850 0.98290 0.09400
C 	C 	0.66610 0.73480 0.89920 0.09900
C 	C 	0.77610 0.76810 0.85150 0.01200
C 	C 	0.80680 0.83210 0.86530 -0.10200
C 	C 	0.90220 0.86670 0.81850 0.05600
C 	C 	0.94680 0.77730 0.74490 0.04500
C 	C 	0.85050 0.74010 0.79010 -0.09100
C 	C 	0.79730 0.01310 0.25890 0.36000
C 	C 	0.66860 0.98340 0.25800 -0.11700
C 	C 	0.53490 0.04740 0.25620 -0.06500
C 	C 	0.54980 0.09580 0.18680 -0.09900
C 	C 	0.56960 0.04950 0.12910 -0.08200
C 	C 	0.70200 0.98440 0.12820 -0.08300
C 	C 	0.69590 0.93610 0.19810 -0.09500
C 	C 	0.81620 0.86850 0.19770 0.32700
C 	C 	0.86810 0.97800 0.59220 0.08400
C 	C 	0.75060 0.02760 0.57340 -0.14500
C 	C 	0.66760 0.08260 0.61540 0.06200
C 	C 	0.71460 0.08340 0.67480 -0.13700
C 	C 	0.83460 0.03280 0.68960 0.07100
C 	C 	0.54370 0.13590 0.59590 0.08600
C 	C 	0.38830 0.19310 0.53990 0.11200
C 	C 	0.30250 0.21980 0.48580 0.05000
C 	C 	0.19790 0.28700 0.48780 -0.13300
C 	C 	0.12340 0.30820 0.43500 0.07800
C 	C 	0.24490 0.20450 0.38210 0.07300
C 	C 	0.32660 0.17780 0.43180 -0.12800
C 	C 	0.00760 0.81520 0.37260 0.06800
C 	C 	0.04170 0.82310 0.43250 -0.12900
C 	C 	0.16120 0.77500 0.45320 0.06200
C 	C 	0.24490 0.72060 0.41060 -0.13500
C 	C 	0.20140 0.71560 0.35160 0.08600
C 	C 	0.20160 0.78150 0.51710 0.09300
C 	C 	0.30010 0.76520 0.60080 0.09900
C 	C 	0.39570 0.73190 0.64850 0.01200
C 	C 	0.50420 0.66790 0.63470 -0.10300
C 	C 	0.58740 0.63330 0.68150 0.05600
C 	C 	0.46900 0.72270 0.75510 0.04500
C 	C 	0.38070 0.75990 0.70990 -0.09100
C 	C 	0.93070 0.51310 0.75890 0.36100
C 	C 	0.09000 0.48340 0.75800 -0.12100
C 	C 	0.16150 0.54740 0.75620 -0.05900
C 	C 	0.16760 0.59580 0.68680 -0.10500
C 	C 	0.25180 0.54950 0.62910 -0.07400
C 	C 	0.18540 0.48440 0.62820 -0.09200
C 	C 	0.16990 0.43610 0.69810 -0.09100
C 	C 	0.11760 0.36850 0.69770 0.32500
C 	C 	0.56170 0.47800 0.09220 0.08100
C 	C 	0.64840 0.52760 0.07340 -0.14000
C 	C 	0.63440 0.58260 0.11540 0.06200
C 	C 	0.52720 0.58340 0.17480 -0.13700
C 	C 	0.44300 0.53280 0.18960 0.07400
C 	C 	0.72450 0.63590 0.09590 0.08700
C 	C 	0.87870 0.69310 0.03990 0.11200
C 	C 	0.99190 0.71980 0.98580 0.05100
C 	C 	0.02730 0.78700 0.98780 -0.13800
C 	C 	0.13340 0.80820 0.93500 0.08000
C 	C 	0.16850 0.70450 0.88210 0.07300
C 	C 	0.06380 0.67780 0.93180 -0.12900
C 	C 	0.80460 0.31520 0.87260 0.07000
C 	C 	0.70270 0.32310 0.93250 -0.12500
C 	C 	0.61060 0.27500 0.95320 0.06100
C 	C 	0.62390 0.22060 0.91060 -0.13400
C 	C 	0.73140 0.21560 0.85160 0.08500
C 	C 	0.49980 0.28150 0.01710 0.09400
C 	C 	0.33390 0.26520 0.10080 0.09900
C 	C 	0.22390 0.23190 0.14850 0.01200
C 	C 	0.19320 0.16790 0.13470 -0.10200
C 	C 	0.09780 0.13330 0.18150 0.05600
C 	C 	0.05320 0.22270 0.25510 0.04500
C 	C 	0.14950 0.25990 0.20990 -0.09100
C 	C 	0.20270 0.98690 0.74110 0.36000
C 	C 	0.33140 0.01660 0.74200 -0.11700
C 	C 	0.46510 0.95260 0.74380 -0.06500
C 	C 	0.45020 0.90420 0.81320 -0.09900
C 	C 	0.43040 0.95050 0.87090 -0.08200
C 	C 	0.29800 0.01560 0.87180 -0.08300
C 	C 	0.30410 0.06390 0.80190 -0.09500
C 	C 	0.18380 0.13150 0.80230 0.32700
C 	C 	0.13190 0.02200 0.40780 0.08400
C 	C 	0.24940 0.97240 0.42660 -0.14500
C 	C 	0.33240 0.91740 0.38460 0.06200
C 	C 	0.28540 0.91660 0.32520 -0.13700
C 	C 	0.16540 0.96720 0.31040 0.07100
C 	C 	0.45630 0.86410 0.40410 0.08600
C 	C 	0.61170 0.80690 0.46010 0.11200
C 	C 	0.69750 0.78020 0.51420 0.05000
C 	C 	0.80210 0.71300 0.51220 -0.13300
C 	C 	0.87660 0.69180 0.56500 0.07800
C 	C 	0.75510 0.79550 0.61790 0.07300
C 	C 	0.67340 0.82220 0.56820 -0.12800
C 	C 	0.99240 0.18480 0.62740 0.06800
C 	C 	0.95830 0.17690 0.56750 -0.12900
C 	C 	0.83880 0.22500 0.54680 0.06200
C 	C 	0.75510 0.27940 0.58940 -0.13500
C 	C 	0.79860 0.28440 0.64840 0.08600
C 	C 	0.79840 0.21850 0.48290 0.09300
C 	C 	0.69990 0.23480 0.39920 0.09900
C 	C 	0.60430 0.26810 0.35150 0.01200
C 	C 	0.49580 0.33210 0.36530 -0.10300
C 	C 	0.41260 0.36670 0.31850 0.05600
C 	C 	0.53100 0.27730 0.24490 0.04500
C 	C 	0.61930 0.24010 0.29010 -0.09100
N 	N 	0.53880 0.52080 0.85060 -0.27200
N 	N 	0.17220 0.36510 0.96290 -0.13400
N 	N 	0.18830 0.27370 0.90390 -0.17000
N 	N 	0.28820 0.30980 0.86660 -0.08600
N 	N 	0.79640 0.23100 0.11780 -0.14000
N 	N 	0.17920 0.73810 0.16850 -0.26600
N 	N 	0.59010 0.76440 0.95780 -0.13300
N 	N 	0.51470 0.66270 0.94470 -0.12100
N 	N 	0.62370 0.67440 0.88940 -0.24100
N 	N 	0.97300 0.84010 0.75790 -0.26400
N 	N 	0.91020 0.97920 0.64940 -0.27100
N 	N 	0.50020 0.13490 0.53710 -0.13400
N 	N 	0.36590 0.22630 0.59610 -0.17000
N 	N 	0.46460 0.19020 0.63340 -0.08600
N 	N 	0.14520 0.26900 0.38220 -0.13900
N 	N 	0.08580 0.76190 0.33150 -0.26600
N 	N 	0.31230 0.73560 0.54220 -0.13300
N 	N 	0.12210 0.83730 0.55530 -0.12200
N 	N 	0.18750 0.82560 0.61060 -0.24100
N 	N 	0.57100 0.65990 0.74210 -0.26500
N 	N 	0.46120 0.47920 0.14940 -0.27200
N 	N 	0.82780 0.63490 0.03710 -0.13400
N 	N 	0.81170 0.72630 0.09610 -0.17000
N 	N 	0.71180 0.69020 0.13340 -0.08600
N 	N 	0.20360 0.76900 0.88220 -0.14000
N 	N 	0.82080 0.26190 0.83150 -0.26600
N 	N 	0.40990 0.23560 0.04220 -0.13300
N 	N 	0.48530 0.33730 0.05530 -0.12100
N 	N 	0.37630 0.32560 0.11060 -0.24100
N 	N 	0.02700 0.15990 0.24210 -0.26400
N 	N 	0.08980 0.02080 0.35060 -0.27100
N 	N 	0.49980 0.86510 0.46290 -0.13400
N 	N 	0.63410 0.77370 0.40390 -0.17000
N 	N 	0.53540 0.80980 0.36660 -0.08600
N 	N 	0.85480 0.73100 0.61780 -0.13900
N 	N 	0.91420 0.23810 0.66850 -0.26600
N 	N 	0.68770 0.26440 0.45780 -0.13300
N 	N 	0.87790 0.16270 0.44470 -0.12200
N 	N 	0.81250 0.17440 0.38940 -0.24100
N 	N 	0.42900 0.34010 0.25790 -0.26500
O 	O 	0.13640 0.44780 0.19060 -0.48500
O 	O 	0.13120 0.49730 0.28250 -0.32300
O 	O 	0.95083 0.65884 0.24490 -0.44300
O 	O 	0.85930 0.66230 0.35570 -0.32700
O 	O 	0.77480 0.05220 0.30940 -0.48500
O 	O 	0.91100 0.00270 0.21750 -0.32400
O 	O 	0.85457 0.84116 0.25510 -0.44400
O 	O 	0.87730 0.83770 0.14430 -0.32700
O 	O 	0.86360 0.55220 0.80940 -0.48500
O 	O 	0.86880 0.50270 0.71750 -0.32300
O 	O 	0.04917 0.34116 0.75510 -0.44300
O 	O 	0.14070 0.33770 0.64430 -0.32700
O 	O 	0.22520 0.94780 0.69060 -0.48500
O 	O 	0.08900 0.99730 0.78250 -0.32400
O 	O 	0.14543 0.15884 0.74490 -0.44400
O 	O 	0.12270 0.16230 0.85570 -0.32700
