data_crystal

_cell_length_a 9.95980
_cell_length_b 11.47020
_cell_length_c 14.59090
_cell_angle_alpha 91.17670
_cell_angle_beta  90.00000
_cell_angle_gamma 90.00000

_symmetry_space_group_name_	'P 1'
_symmetry_space_group_name_H-M	'P 1'

loop_
_symmetry_equiv_pos_as_xyz
  x,y,z

loop_
_atom_site_label
_atom_site_type_symbol
_atom_site_fract_x
_atom_site_fract_y
_atom_site_fract_z
_atom_site_charge
Fe	Fe	0.92271 0.75492 0.13308 1.24000
Fe	Fe	0.88820 0.26025 0.68797 1.22700
Fe	Fe	0.42271 0.74508 0.36692 1.19800
Fe	Fe	0.38820 0.23975 0.81203 1.20700
Fe	Fe	0.07729 0.24508 0.86692 1.15100
Fe	Fe	0.11180 0.73975 0.31203 1.19000
Fe	Fe	0.57729 0.25492 0.63308 1.19100
Fe	Fe	0.61180 0.76025 0.18797 1.21000
Fe	Fe	-0.00000 0.50000 -0.00000 1.12000
Fe	Fe	0.50000 -0.00000 0.50000 1.18300
Fe	Fe	-0.00000 0.00000 -0.00000 1.08400
Fe	Fe	0.50000 0.50000 0.50000 1.22200
H 	H 	0.75500 0.85490 0.36890 -0.07700
H 	H 	0.04100 0.47480 0.26480 -0.07900
H 	H 	0.61500 0.56450 0.04150 -0.05600
H 	H 	0.19700 0.97830 0.23630 -0.11300
H 	H 	0.15300 0.69880 0.92480 -0.12500
H 	H 	0.70800 0.99310 0.00710 -0.07300
H 	H 	0.25500 0.64510 0.13110 -0.11000
H 	H 	0.54100 0.02520 0.23520 -0.24000
H 	H 	0.11500 0.93550 0.45850 -0.08900
H 	H 	0.69700 0.52170 0.26370 -0.08000
H 	H 	0.65300 0.80120 0.57520 -0.07800
H 	H 	0.20800 0.50690 0.49290 -0.09100
H 	H 	0.24500 0.14510 0.63110 -0.12000
H 	H 	0.95900 0.52520 0.73520 -0.11300
H 	H 	0.38500 0.43550 0.95850 -0.10300
H 	H 	0.80300 0.02170 0.76370 -0.05600
H 	H 	0.84700 0.30120 0.07520 -0.05900
H 	H 	0.29200 0.00690 0.99290 -0.06500
H 	H 	0.74500 0.35490 0.86890 -0.08400
H 	H 	0.45900 0.97480 0.76480 0.04700
H 	H 	0.88500 0.06450 0.54150 -0.07000
H 	H 	0.30300 0.47830 0.73630 -0.09200
H 	H 	0.34700 0.19880 0.42480 -0.11900
H 	H 	0.79200 0.49310 0.50710 -0.05700
C 	C 	0.82910 0.82780 0.33170 0.45100
C 	C 	0.01670 0.51753 0.21143 0.32600
C 	C 	0.71250 0.57614 0.04624 0.28200
C 	C 	0.13160 0.95239 0.18689 0.56600
C 	C 	0.10230 0.74361 0.96731 0.63400
C 	C 	0.72290 0.92931 0.05091 0.42500
C 	C 	0.32910 0.67220 0.16830 0.45800
C 	C 	0.51670 0.98247 0.28857 0.75800
C 	C 	0.21250 0.92386 0.45376 0.44800
C 	C 	0.63160 0.54761 0.31311 0.44300
C 	C 	0.60230 0.75639 0.53269 0.47400
C 	C 	0.22290 0.57069 0.44909 0.44200
C 	C 	0.17090 0.17220 0.66830 0.46300
C 	C 	0.98330 0.48247 0.78857 0.63000
C 	C 	0.28750 0.42386 0.95376 0.61400
C 	C 	0.86840 0.04761 0.81311 0.31700
C 	C 	0.89770 0.25639 0.03269 0.30800
C 	C 	0.27710 0.07069 0.94909 0.43500
C 	C 	0.67090 0.32780 0.83170 0.45500
C 	C 	0.48330 0.01753 0.71143 0.20400
C 	C 	0.78750 0.07614 0.54624 0.45200
C 	C 	0.36840 0.45239 0.68689 0.44700
C 	C 	0.39770 0.24361 0.46731 0.49100
C 	C 	0.77710 0.42931 0.55091 0.42900
O 	O 	0.80217 0.80551 0.24723 -0.52100
O 	O 	0.93932 0.81417 0.36937 -0.35800
O 	O 	0.00822 0.62712 0.21897 -0.56000
O 	O 	0.99888 0.45837 0.14104 -0.31400
O 	O 	0.74426 0.65252 0.10697 -0.49200
O 	O 	0.79115 0.51793 0.99802 -0.25500
O 	O 	0.08511 0.85008 0.19664 -0.60400
O 	O 	0.10538 0.01899 0.12422 -0.56600
O 	O 	0.02750 0.68601 0.02242 -0.68200
O 	O 	0.10986 0.85014 0.96332 -0.42600
O 	O 	0.84453 0.89739 0.06127 -0.50100
O 	O 	0.62348 0.88918 0.09117 -0.41900
O 	O 	0.30217 0.69449 0.25277 -0.54700
O 	O 	0.43932 0.68583 0.13063 -0.44200
O 	O 	0.50822 0.87288 0.28103 -0.61800
O 	O 	0.49888 0.04163 0.35896 -0.55800
O 	O 	0.24426 0.84748 0.39303 -0.53800
O 	O 	0.29115 0.98207 0.50198 -0.38600
O 	O 	0.58511 0.64992 0.30336 -0.53700
O 	O 	0.60538 0.48101 0.37578 -0.42300
O 	O 	0.52750 0.81399 0.47758 -0.52900
O 	O 	0.60986 0.64986 0.53668 -0.43200
O 	O 	0.34453 0.60261 0.43873 -0.54500
O 	O 	0.12348 0.61082 0.40883 -0.45300
O 	O 	0.19783 0.19449 0.75277 -0.57300
O 	O 	0.06068 0.18583 0.63063 -0.49800
O 	O 	0.99178 0.37288 0.78103 -0.54600
O 	O 	0.00112 0.54163 0.85896 -0.51300
O 	O 	0.25574 0.34748 0.89303 -0.57900
O 	O 	0.20885 0.48207 0.00198 -0.56100
O 	O 	0.91489 0.14992 0.80336 -0.46900
O 	O 	0.89462 0.98101 0.87578 -0.24500
O 	O 	0.97250 0.31399 0.97758 -0.37700
O 	O 	0.89014 0.14986 0.03668 -0.40700
O 	O 	0.15547 0.10261 0.93873 -0.54000
O 	O 	0.37652 0.11082 0.90883 -0.42600
O 	O 	0.69783 0.30551 0.74723 -0.54500
O 	O 	0.56068 0.31417 0.86937 -0.41000
O 	O 	0.49178 0.12712 0.71897 -0.49200
O 	O 	0.50112 0.95837 0.64104 -0.29000
O 	O 	0.75574 0.15252 0.60697 -0.53600
O 	O 	0.70885 0.01793 0.49802 -0.44700
O 	O 	0.41489 0.35008 0.69664 -0.54500
O 	O 	0.39462 0.51899 0.62422 -0.42800
O 	O 	0.47250 0.18601 0.52242 -0.55700
O 	O 	0.39014 0.35014 0.46332 -0.45400
O 	O 	0.65547 0.39739 0.56127 -0.53500
O 	O 	0.87652 0.38918 0.59117 -0.39400
