data_crystal

_cell_length_a 10.00600
_cell_length_b 11.48090
_cell_length_c 14.64660
_cell_angle_alpha 91.20600
_cell_angle_beta  90.00000
_cell_angle_gamma 90.00000

_symmetry_space_group_name_	'P 1'
_symmetry_space_group_name_H-M	'P 1'

loop_
_symmetry_equiv_pos_as_xyz
  x,y,z

loop_
_atom_site_label
_atom_site_type_symbol
_atom_site_fract_x
_atom_site_fract_y
_atom_site_fract_z
_atom_site_charge
Fe	Fe	0.92311 0.75523 0.13278 1.25000
Fe	Fe	0.88723 0.25966 0.68876 1.23300
Fe	Fe	0.42311 0.74477 0.36722 1.20100
Fe	Fe	0.38723 0.24034 0.81124 1.21100
Fe	Fe	0.07689 0.24477 0.86722 1.14300
Fe	Fe	0.11277 0.74034 0.31124 1.19300
Fe	Fe	0.57689 0.25523 0.63278 1.19200
Fe	Fe	0.61277 0.75966 0.18876 1.21400
Fe	Fe	-0.00000 0.50000 -0.00000 1.12200
Fe	Fe	0.50000 0.00000 0.50000 1.19000
Fe	Fe	-0.00000 0.00000 -0.00000 1.08900
Fe	Fe	0.50000 0.50000 0.50000 1.22400
H 	H 	0.76000 0.85540 0.36740 -0.09200
H 	H 	0.03300 0.47920 0.26220 -0.17400
H 	H 	0.61800 0.56740 0.04440 -0.06300
H 	H 	0.19900 0.97790 0.23190 -0.12000
H 	H 	0.14800 0.69650 0.92550 -0.14700
H 	H 	0.70700 0.99090 0.00990 -0.08400
H 	H 	0.26000 0.64460 0.13260 -0.12300
H 	H 	0.53300 0.02080 0.23780 -0.29500
H 	H 	0.11800 0.93260 0.45560 -0.10400
H 	H 	0.69900 0.52210 0.26810 -0.08300
H 	H 	0.64800 0.80350 0.57450 -0.09000
H 	H 	0.20700 0.50910 0.49010 -0.10400
H 	H 	0.24000 0.14460 0.63260 -0.13500
H 	H 	0.96700 0.52080 0.73780 -0.09500
H 	H 	0.38200 0.43260 0.95560 -0.11400
H 	H 	0.80100 0.02210 0.76810 -0.06400
H 	H 	0.85200 0.30350 0.07450 -0.05300
H 	H 	0.29300 0.00910 0.99010 -0.07600
H 	H 	0.74000 0.35540 0.86740 -0.10100
H 	H 	0.46700 0.97920 0.76220 0.02600
H 	H 	0.88200 0.06740 0.54440 -0.07500
H 	H 	0.30100 0.47790 0.73190 -0.10600
H 	H 	0.35200 0.19650 0.42550 -0.12600
H 	H 	0.79300 0.49090 0.50990 -0.06500
C 	C 	0.83110 0.82651 0.33101 0.47900
C 	C 	0.01820 0.51904 0.21024 0.58700
C 	C 	0.71450 0.57632 0.04762 0.30700
C 	C 	0.13140 0.95207 0.18537 0.58400
C 	C 	0.10060 0.74416 0.96716 0.65000
C 	C 	0.72410 0.92877 0.05267 0.45000
C 	C 	0.33110 0.67349 0.16899 0.49000
C 	C 	0.51820 0.98096 0.28976 0.85900
C 	C 	0.21450 0.92368 0.45238 0.47400
C 	C 	0.63140 0.54793 0.31463 0.46500
C 	C 	0.60060 0.75584 0.53284 0.50000
C 	C 	0.22410 0.57123 0.44733 0.47000
C 	C 	0.16890 0.17349 0.66899 0.49800
C 	C 	0.98180 0.48096 0.78976 0.51200
C 	C 	0.28550 0.42368 0.95238 0.62900
C 	C 	0.86860 0.04793 0.81463 0.34300
C 	C 	0.89940 0.25584 0.03284 0.33100
C 	C 	0.27590 0.07123 0.94733 0.46200
C 	C 	0.66890 0.32651 0.83101 0.48600
C 	C 	0.48180 0.01904 0.71024 0.24400
C 	C 	0.78550 0.07632 0.54762 0.47400
C 	C 	0.36860 0.45207 0.68537 0.47200
C 	C 	0.39940 0.24416 0.46716 0.51600
C 	C 	0.77590 0.42877 0.55267 0.45300
O 	O 	0.80310 0.80451 0.24769 -0.52600
O 	O 	0.94078 0.81374 0.36781 -0.36200
O 	O 	0.00954 0.62766 0.21817 -0.62800
O 	O 	0.00063 0.46028 0.14040 -0.52100
O 	O 	0.74511 0.65243 0.10768 -0.49400
O 	O 	0.79170 0.51833 0.99963 -0.26400
O 	O 	0.08489 0.85090 0.19607 -0.61000
O 	O 	0.10588 0.01804 0.12338 -0.56700
O 	O 	0.02714 0.68621 0.02169 -0.68800
O 	O 	0.10824 0.84954 0.96332 -0.44700
O 	O 	0.84478 0.89746 0.06170 -0.50800
O 	O 	0.62612 0.88869 0.09286 -0.42600
O 	O 	0.30310 0.69549 0.25231 -0.55400
O 	O 	0.44078 0.68626 0.13219 -0.45100
O 	O 	0.50954 0.87234 0.28183 -0.64600
O 	O 	0.50063 0.03972 0.35960 -0.58400
O 	O 	0.24511 0.84757 0.39232 -0.54700
O 	O 	0.29170 0.98167 0.50037 -0.39900
O 	O 	0.58489 0.64910 0.30393 -0.54200
O 	O 	0.60588 0.48196 0.37662 -0.42900
O 	O 	0.52714 0.81379 0.47831 -0.53600
O 	O 	0.60824 0.65046 0.53668 -0.44400
O 	O 	0.34478 0.60254 0.43830 -0.55400
O 	O 	0.12612 0.61131 0.40714 -0.46200
O 	O 	0.19690 0.19549 0.75231 -0.58400
O 	O 	0.05922 0.18626 0.63219 -0.51600
O 	O 	0.99046 0.37234 0.78183 -0.51400
O 	O 	0.99937 0.53972 0.85960 -0.34900
O 	O 	0.25489 0.34757 0.89232 -0.58900
O 	O 	0.20830 0.48167 0.00037 -0.56100
O 	O 	0.91511 0.14910 0.80393 -0.47300
O 	O 	0.89412 0.98196 0.87662 -0.25800
O 	O 	0.97286 0.31379 0.97831 -0.37200
O 	O 	0.89176 0.15046 0.03668 -0.40800
O 	O 	0.15522 0.10254 0.93830 -0.55200
O 	O 	0.37388 0.11131 0.90714 -0.43400
O 	O 	0.69690 0.30451 0.74769 -0.55400
O 	O 	0.55922 0.31374 0.86781 -0.42200
O 	O 	0.49046 0.12766 0.71817 -0.50100
O 	O 	0.49937 0.96028 0.64040 -0.30800
O 	O 	0.75489 0.15243 0.60768 -0.54100
O 	O 	0.70830 0.01833 0.49963 -0.45100
O 	O 	0.41511 0.35090 0.69607 -0.55300
O 	O 	0.39412 0.51804 0.62338 -0.43900
O 	O 	0.47286 0.18621 0.52169 -0.56000
O 	O 	0.39176 0.34954 0.46332 -0.46400
O 	O 	0.65522 0.39746 0.56170 -0.54200
O 	O 	0.87388 0.38869 0.59286 -0.40000
