data_crystal

_cell_length_a 16.64400
_cell_length_b 17.61500
_cell_length_c 19.66000
_cell_angle_alpha 91.89000
_cell_angle_beta  90.00000
_cell_angle_gamma 90.00000

_symmetry_space_group_name_	'P 1'
_symmetry_space_group_name_H-M	'P 1'

loop_
_symmetry_equiv_pos_as_xyz
  x,y,z

loop_
_atom_site_label
_atom_site_type_symbol
_atom_site_fract_x
_atom_site_fract_y
_atom_site_fract_z
_atom_site_charge
Zn	Zn	0.89404 0.93928 0.51002 1.22500
Zn	Zn	0.39404 0.56072 0.48998 1.22600
Zn	Zn	0.10596 0.06072 0.48998 1.22500
Zn	Zn	0.60596 0.43928 0.51002 1.22600
H 	H 	0.94050 0.82250 0.73880 0.13000
H 	H 	0.92200 0.80770 0.27790 0.13800
H 	H 	0.11550 0.63730 0.50710 0.06200
H 	H 	0.94020 0.83210 0.62230 -0.00600
H 	H 	0.85500 0.03470 0.75540 0.14500
H 	H 	0.02240 0.74410 0.51060 0.04600
H 	H 	0.88550 0.03000 0.26670 0.15300
H 	H 	0.08860 0.88510 0.06770 0.05700
H 	H 	0.85910 0.04040 0.63770 -0.00200
H 	H 	0.92520 0.82220 0.39460 -0.01400
H 	H 	0.09030 0.89840 0.94970 0.06000
H 	H 	0.70830 0.92830 0.06990 0.05900
H 	H 	0.70780 0.93110 0.95070 0.06300
H 	H 	0.88300 0.03940 0.38420 -0.01400
H 	H 	0.44050 0.67750 0.26120 0.12900
H 	H 	0.42200 0.69230 0.72210 0.13700
H 	H 	0.61550 0.86270 0.49290 0.06100
H 	H 	0.44020 0.66790 0.37770 -0.00600
H 	H 	0.35500 0.46530 0.24460 0.14100
H 	H 	0.52240 0.75590 0.48940 0.04500
H 	H 	0.38550 0.47000 0.73330 0.14900
H 	H 	0.58860 0.61490 0.93230 0.05800
H 	H 	0.35910 0.45960 0.36230 -0.00500
H 	H 	0.42520 0.67780 0.60540 -0.01400
H 	H 	0.59030 0.60160 0.05030 0.06000
H 	H 	0.20830 0.57170 0.93010 0.05900
H 	H 	0.20780 0.56890 0.04930 0.06300
H 	H 	0.38300 0.46060 0.61580 -0.01700
H 	H 	0.05950 0.17750 0.26120 0.12900
H 	H 	0.07800 0.19230 0.72210 0.13700
H 	H 	0.88450 0.36270 0.49290 0.06100
H 	H 	0.05980 0.16790 0.37770 -0.00700
H 	H 	0.14500 0.96530 0.24460 0.14400
H 	H 	0.97760 0.25590 0.48940 0.04500
H 	H 	0.11450 0.97000 0.73330 0.15300
H 	H 	0.91140 0.11490 0.93230 0.05700
H 	H 	0.14090 0.95960 0.36230 -0.00200
H 	H 	0.07480 0.17780 0.60540 -0.01400
H 	H 	0.90970 0.10160 0.05030 0.06000
H 	H 	0.29170 0.07170 0.93010 0.05900
H 	H 	0.29220 0.06890 0.04930 0.06300
H 	H 	0.11700 0.96060 0.61580 -0.01400
H 	H 	0.55950 0.32250 0.73880 0.12900
H 	H 	0.57800 0.30770 0.27790 0.13700
H 	H 	0.38450 0.13730 0.50710 0.06100
H 	H 	0.55980 0.33210 0.62230 -0.00600
H 	H 	0.64500 0.53470 0.75540 0.14100
H 	H 	0.47760 0.24410 0.51060 0.04500
H 	H 	0.61450 0.53000 0.26670 0.14900
H 	H 	0.41140 0.38510 0.06770 0.05800
H 	H 	0.64090 0.54040 0.63770 -0.00500
H 	H 	0.57480 0.32220 0.39460 -0.01400
H 	H 	0.40970 0.39840 0.94970 0.06000
H 	H 	0.79170 0.42830 0.06990 0.05900
H 	H 	0.79220 0.43110 0.95070 0.06300
H 	H 	0.61700 0.53940 0.38420 -0.01700
C 	C 	0.11567 0.81675 0.49660 -0.13200
C 	C 	0.97090 0.90770 0.93879 -0.06000
C 	C 	0.28140 0.66120 0.49092 0.33000
C 	C 	0.92360 0.86760 0.71894 -0.22700
C 	C 	0.97240 0.91460 0.86393 0.22200
C 	C 	0.91400 0.85570 0.29910 -0.24800
C 	C 	0.90160 0.91780 0.26191 0.25900
C 	C 	0.13140 0.68800 0.50246 -0.02000
C 	C 	0.89920 0.92870 0.75846 0.23900
C 	C 	0.97060 0.90040 0.07953 -0.06600
C 	C 	0.92300 0.87390 0.64946 0.13800
C 	C 	0.82550 0.92510 0.86411 0.22500
C 	C 	0.87350 0.99300 0.72878 -0.22500
C 	C 	0.07810 0.74914 0.50448 0.01900
C 	C 	0.82630 0.91720 0.08079 -0.06600
C 	C 	0.89910 0.91280 0.97353 0.03000
C 	C 	0.97210 0.89880 0.15472 0.23400
C 	C 	0.89170 0.98640 0.29252 -0.25200
C 	C 	0.04030 0.89380 0.04436 -0.01500
C 	C 	0.82610 0.91890 0.15586 0.23900
C 	C 	0.87530 0.99550 0.65841 0.13000
C 	C 	0.20860 0.70950 0.49317 -0.08100
C 	C 	0.89880 0.91020 0.04543 0.04000
C 	C 	0.91470 0.86490 0.36862 0.15000
C 	C 	0.82680 0.92100 0.93968 -0.05600
C 	C 	0.04120 0.89980 0.97336 -0.02200
C 	C 	0.75710 0.92440 0.04596 -0.01600
C 	C 	0.75650 0.92630 0.97427 -0.02800
C 	C 	0.89100 0.99150 0.36264 0.14400
C 	C 	0.07890 0.89312 0.49709 0.44400
C 	C 	0.61567 0.68325 0.50340 -0.13200
C 	C 	0.47090 0.59230 0.06121 -0.05800
C 	C 	0.78140 0.83880 0.50908 0.33000
C 	C 	0.42360 0.63240 0.28106 -0.22700
C 	C 	0.47240 0.58540 0.13607 0.22500
C 	C 	0.41400 0.64430 0.70090 -0.24700
C 	C 	0.40160 0.58220 0.73809 0.25900
C 	C 	0.63140 0.81200 0.49754 -0.02000
C 	C 	0.39920 0.57130 0.24154 0.23800
C 	C 	0.47060 0.59960 0.92047 -0.06400
C 	C 	0.42300 0.62610 0.35054 0.13800
C 	C 	0.32550 0.57490 0.13589 0.22500
C 	C 	0.37350 0.50700 0.27122 -0.22100
C 	C 	0.57810 0.75086 0.49552 0.01900
C 	C 	0.32630 0.58280 0.91921 -0.06600
C 	C 	0.39910 0.58720 0.02647 0.03000
C 	C 	0.47210 0.60120 0.84528 0.23700
C 	C 	0.39170 0.51360 0.70748 -0.24800
C 	C 	0.54030 0.60620 0.95564 -0.01800
C 	C 	0.32610 0.58110 0.84414 0.23900
C 	C 	0.37530 0.50450 0.34159 0.13300
C 	C 	0.70860 0.79050 0.50683 -0.08100
C 	C 	0.39880 0.58980 0.95457 0.04000
C 	C 	0.41470 0.63510 0.63138 0.15000
C 	C 	0.32680 0.57900 0.06032 -0.05600
C 	C 	0.54120 0.60020 0.02664 -0.02500
C 	C 	0.25710 0.57560 0.95404 -0.01600
C 	C 	0.25650 0.57370 0.02573 -0.02800
C 	C 	0.39100 0.50850 0.63736 0.14700
C 	C 	0.57890 0.60688 0.50291 0.44400
C 	C 	0.88433 0.18325 0.50340 -0.13200
C 	C 	0.02910 0.09230 0.06121 -0.06000
C 	C 	0.71860 0.33880 0.50908 0.33000
C 	C 	0.07640 0.13240 0.28106 -0.22700
C 	C 	0.02760 0.08540 0.13607 0.22200
C 	C 	0.08600 0.14430 0.70090 -0.24800
C 	C 	0.09840 0.08220 0.73809 0.25900
C 	C 	0.86860 0.31200 0.49754 -0.02000
C 	C 	0.10080 0.07130 0.24154 0.23900
C 	C 	0.02940 0.09960 0.92047 -0.06600
C 	C 	0.07700 0.12610 0.35054 0.13800
C 	C 	0.17450 0.07490 0.13589 0.22500
C 	C 	0.12650 0.00700 0.27122 -0.22500
C 	C 	0.92190 0.25086 0.49552 0.01900
C 	C 	0.17370 0.08280 0.91921 -0.06600
C 	C 	0.10090 0.08720 0.02647 0.03000
C 	C 	0.02790 0.10120 0.84528 0.23400
C 	C 	0.10830 0.01360 0.70748 -0.25200
C 	C 	0.95970 0.10620 0.95564 -0.01500
C 	C 	0.17390 0.08110 0.84414 0.23900
C 	C 	0.12470 0.00450 0.34159 0.13000
C 	C 	0.79140 0.29050 0.50683 -0.08100
C 	C 	0.10120 0.08980 0.95457 0.04000
C 	C 	0.08530 0.13510 0.63138 0.15000
C 	C 	0.17320 0.07900 0.06032 -0.05600
C 	C 	0.95880 0.10020 0.02664 -0.02200
C 	C 	0.24290 0.07560 0.95404 -0.01600
C 	C 	0.24350 0.07370 0.02573 -0.02800
C 	C 	0.10900 0.00850 0.63736 0.14400
C 	C 	0.92110 0.10688 0.50291 0.44400
C 	C 	0.38433 0.31675 0.49660 -0.13200
C 	C 	0.52910 0.40770 0.93879 -0.05800
C 	C 	0.21860 0.16120 0.49092 0.33000
C 	C 	0.57640 0.36760 0.71894 -0.22700
C 	C 	0.52760 0.41460 0.86393 0.22500
C 	C 	0.58600 0.35570 0.29910 -0.24700
C 	C 	0.59840 0.41780 0.26191 0.25900
C 	C 	0.36860 0.18800 0.50246 -0.02000
C 	C 	0.60080 0.42870 0.75846 0.23800
C 	C 	0.52940 0.40040 0.07953 -0.06400
C 	C 	0.57700 0.37390 0.64946 0.13800
C 	C 	0.67450 0.42510 0.86411 0.22500
C 	C 	0.62650 0.49300 0.72878 -0.22100
C 	C 	0.42190 0.24914 0.50448 0.01900
C 	C 	0.67370 0.41720 0.08079 -0.06600
C 	C 	0.60090 0.41280 0.97353 0.03000
C 	C 	0.52790 0.39880 0.15472 0.23700
C 	C 	0.60830 0.48640 0.29252 -0.24800
C 	C 	0.45970 0.39380 0.04436 -0.01800
C 	C 	0.67390 0.41890 0.15586 0.23900
C 	C 	0.62470 0.49550 0.65841 0.13300
C 	C 	0.29140 0.20950 0.49317 -0.08100
C 	C 	0.60120 0.41020 0.04543 0.04000
C 	C 	0.58530 0.36490 0.36862 0.15000
C 	C 	0.67320 0.42100 0.93968 -0.05600
C 	C 	0.45880 0.39980 0.97336 -0.02500
C 	C 	0.74290 0.42440 0.04596 -0.01600
C 	C 	0.74350 0.42630 0.97427 -0.02800
C 	C 	0.60900 0.49150 0.36264 0.14700
C 	C 	0.42110 0.39312 0.49709 0.44400
S 	S 	0.21574 0.80547 0.48659 0.10000
S 	S 	0.71574 0.69453 0.51341 0.09900
S 	S 	0.78426 0.19453 0.51341 0.10000
S 	S 	0.28426 0.30547 0.48659 0.09900
N 	N 	0.90119 0.93122 0.40124 -0.26100
N 	N 	0.89922 0.92442 0.83172 -0.20000
N 	N 	0.89917 0.93645 0.61867 -0.25100
N 	N 	0.89938 0.91231 0.18769 -0.20400
N 	N 	0.40119 0.56878 0.59876 -0.26100
N 	N 	0.39922 0.57558 0.16828 -0.20000
N 	N 	0.39917 0.56355 0.38133 -0.25100
N 	N 	0.39938 0.58769 0.81231 -0.20400
N 	N 	0.09881 0.06878 0.59876 -0.26100
N 	N 	0.10078 0.07558 0.16828 -0.20000
N 	N 	0.10083 0.06355 0.38133 -0.25100
N 	N 	0.10062 0.08769 0.81231 -0.20400
N 	N 	0.59881 0.43122 0.40124 -0.26100
N 	N 	0.60078 0.42442 0.83172 -0.20000
N 	N 	0.60083 0.43645 0.61867 -0.25100
N 	N 	0.60062 0.41231 0.18769 -0.20400
O 	O 	0.00675 0.89750 0.51093 -0.49500
O 	O 	0.12495 0.94799 0.48626 -0.46900
O 	O 	0.34727 0.69344 0.48820 -0.33700
O 	O 	0.03403 0.91605 0.83161 -0.22700
O 	O 	0.03178 0.88789 0.18668 -0.23000
O 	O 	0.27384 0.59132 0.49181 -0.40200
O 	O 	0.76490 0.92890 0.83153 -0.22200
O 	O 	0.76674 0.92660 0.18888 -0.22600
O 	O 	0.50675 0.60250 0.48907 -0.49700
O 	O 	0.62495 0.55201 0.51374 -0.47000
O 	O 	0.84727 0.80656 0.51180 -0.33800
O 	O 	0.53403 0.58395 0.16839 -0.23000
O 	O 	0.53178 0.61211 0.81332 -0.23400
O 	O 	0.77384 0.90868 0.50819 -0.40300
O 	O 	0.26490 0.57110 0.16847 -0.22200
O 	O 	0.26674 0.57340 0.81112 -0.22600
O 	O 	0.99325 0.10250 0.48907 -0.49500
O 	O 	0.87505 0.05201 0.51374 -0.46900
O 	O 	0.65273 0.30656 0.51180 -0.33700
O 	O 	0.96597 0.08395 0.16839 -0.22700
O 	O 	0.96822 0.11211 0.81332 -0.23000
O 	O 	0.72616 0.40868 0.50819 -0.40200
O 	O 	0.23510 0.07110 0.16847 -0.22200
O 	O 	0.23326 0.07340 0.81112 -0.22600
O 	O 	0.49325 0.39750 0.51093 -0.49700
O 	O 	0.37505 0.44799 0.48626 -0.47000
O 	O 	0.15273 0.19344 0.48820 -0.33800
O 	O 	0.46597 0.41605 0.83161 -0.23000
O 	O 	0.46822 0.38789 0.18668 -0.23400
O 	O 	0.22616 0.09132 0.49181 -0.40300
O 	O 	0.73510 0.42890 0.83153 -0.22200
O 	O 	0.73326 0.42660 0.18888 -0.22600
