data_crystal

_cell_length_a 17.96430
_cell_length_b 18.59240
_cell_length_c 18.59240
_cell_angle_alpha 120.00000
_cell_angle_beta  90.00000
_cell_angle_gamma 90.00000

_symmetry_space_group_name_	'P 1'
_symmetry_space_group_name_H-M	'P 1'

loop_
_symmetry_equiv_pos_as_xyz
  x,y,z

loop_
_atom_site_label
_atom_site_type_symbol
_atom_site_fract_x
_atom_site_fract_y
_atom_site_fract_z
_atom_site_charge
Zn	Zn	0.61933 0.09926 0.34221 1.22300
Zn	Zn	0.61933 0.24295 0.90074 1.23000
Zn	Zn	0.61933 0.65779 0.75705 1.22500
Zn	Zn	0.11933 0.90074 0.65779 1.23000
Zn	Zn	0.11933 0.75705 0.09926 1.22300
Zn	Zn	0.11933 0.34221 0.24295 1.22500
Zn	Zn	0.11933 0.24295 0.34221 1.22500
Zn	Zn	0.11933 0.65779 0.90074 1.23100
Zn	Zn	0.11933 0.09926 0.75705 1.22400
Zn	Zn	0.61933 0.75705 0.65779 1.22600
Zn	Zn	0.61933 0.34221 0.09926 1.22400
Zn	Zn	0.61933 0.90074 0.24295 1.23100
Zn	Zn	0.27654 0.34415 0.34415 1.15800
Zn	Zn	0.27654 0.00000 0.65585 1.15000
Zn	Zn	0.27654 0.65585 -0.00000 1.15000
Zn	Zn	0.77654 0.65585 0.65585 1.15200
Zn	Zn	0.77654 0.00000 0.34415 1.14300
Zn	Zn	0.77654 0.34415 -0.00000 1.14300
H 	H 	0.58280 0.20120 0.64660 0.02200
H 	H 	0.39710 0.12360 0.29290 0.00600
H 	H 	0.58280 0.44540 0.79880 0.03000
H 	H 	0.39710 0.16930 0.87640 -0.00200
H 	H 	0.58280 0.35340 0.55460 0.02500
H 	H 	0.39710 0.70710 0.83070 0.01500
H 	H 	0.08280 0.79880 0.35340 0.04000
H 	H 	0.89710 0.87640 0.70710 -0.00300
H 	H 	0.08280 0.55460 0.20120 0.03300
H 	H 	0.89710 0.83070 0.12360 0.00700
H 	H 	0.08280 0.64660 0.44540 0.03700
H 	H 	0.89710 0.29290 0.16930 -0.00200
H 	H 	0.08280 0.44540 0.64660 0.03700
H 	H 	0.89710 0.16930 0.29290 -0.00200
H 	H 	0.08280 0.35340 0.79880 0.04000
H 	H 	0.89710 0.70710 0.87640 -0.00300
H 	H 	0.08280 0.20120 0.55460 0.03300
H 	H 	0.89710 0.12360 0.83070 0.00700
H 	H 	0.58280 0.55460 0.35340 0.02500
H 	H 	0.39710 0.83070 0.70710 0.01500
H 	H 	0.58280 0.64660 0.20120 0.02200
H 	H 	0.39710 0.29290 0.12360 0.00600
H 	H 	0.58280 0.79880 0.44540 0.03000
H 	H 	0.39710 0.87640 0.16930 -0.00200
H 	H 	0.20610 0.00000 0.19570 0.02700
H 	H 	0.20610 0.19570 -0.00000 0.02700
H 	H 	0.20610 0.80430 0.80430 0.03000
H 	H 	0.70610 0.00000 0.80430 0.03300
H 	H 	0.70610 0.80430 -0.00000 0.03300
H 	H 	0.70610 0.19570 0.19570 0.01600
C 	C 	0.58830 0.19190 0.49880 0.36700
C 	C 	0.58710 0.26690 0.58700 -0.14600
C 	C 	0.58530 0.25490 0.65510 0.06800
C 	C 	0.25420 0.15540 0.27740 0.45200
C 	C 	0.29520 0.07400 0.24260 -0.18200
C 	C 	0.37210 0.07390 0.25960 0.12000
C 	C 	0.58830 0.30690 0.80810 0.36300
C 	C 	0.58710 0.32010 0.73310 -0.14200
C 	C 	0.58530 0.40020 0.74510 0.06700
C 	C 	0.25420 0.12200 0.84460 0.44800
C 	C 	0.29520 0.16860 0.92600 -0.15400
C 	C 	0.37210 0.18570 0.92610 0.15700
C 	C 	0.58830 0.50120 0.69310 0.36400
C 	C 	0.58710 0.41300 0.67990 -0.14300
C 	C 	0.58530 0.34490 0.59980 0.06800
C 	C 	0.25420 0.72260 0.87800 0.45500
C 	C 	0.29520 0.75740 0.83140 -0.17600
C 	C 	0.37210 0.74040 0.81430 0.11500
C 	C 	0.08830 0.80810 0.50120 0.36100
C 	C 	0.08710 0.73310 0.41300 -0.12400
C 	C 	0.08530 0.74510 0.34490 0.06100
C 	C 	0.75420 0.84460 0.72260 0.44300
C 	C 	0.79520 0.92600 0.75740 -0.13400
C 	C 	0.87210 0.92610 0.74040 0.11100
C 	C 	0.08830 0.69310 0.19190 0.36500
C 	C 	0.08710 0.67990 0.26690 -0.12800
C 	C 	0.08530 0.59980 0.25490 0.06200
C 	C 	0.75420 0.87800 0.15540 0.44500
C 	C 	0.79520 0.83140 0.07400 -0.16100
C 	C 	0.87210 0.81430 0.07390 0.07500
C 	C 	0.08830 0.49880 0.30690 0.36400
C 	C 	0.08710 0.58700 0.32010 -0.12800
C 	C 	0.08530 0.65510 0.40020 0.06100
C 	C 	0.75420 0.27740 0.12200 0.45300
C 	C 	0.79520 0.24260 0.16860 -0.18900
C 	C 	0.87210 0.25960 0.18570 0.08100
C 	C 	0.08830 0.30690 0.49880 0.36400
C 	C 	0.08710 0.32010 0.58700 -0.12800
C 	C 	0.08530 0.40020 0.65510 0.06100
C 	C 	0.75420 0.12200 0.27740 0.45300
C 	C 	0.79520 0.16860 0.24260 -0.18900
C 	C 	0.87210 0.18570 0.25960 0.08100
C 	C 	0.08830 0.50120 0.80810 0.36100
C 	C 	0.08710 0.41300 0.73310 -0.12400
C 	C 	0.08530 0.34490 0.74510 0.06100
C 	C 	0.75420 0.72260 0.84460 0.44300
C 	C 	0.79520 0.75740 0.92600 -0.13400
C 	C 	0.87210 0.74040 0.92610 0.11100
C 	C 	0.08830 0.19190 0.69310 0.36500
C 	C 	0.08710 0.26690 0.67990 -0.12800
C 	C 	0.08530 0.25490 0.59980 0.06200
C 	C 	0.75420 0.15540 0.87800 0.44500
C 	C 	0.79520 0.07400 0.83140 -0.16100
C 	C 	0.87210 0.07390 0.81430 0.07500
C 	C 	0.58830 0.69310 0.50120 0.36400
C 	C 	0.58710 0.67990 0.41300 -0.14300
C 	C 	0.58530 0.59980 0.34490 0.06800
C 	C 	0.25420 0.87800 0.72260 0.45500
C 	C 	0.29520 0.83140 0.75740 -0.17600
C 	C 	0.37210 0.81430 0.74040 0.11500
C 	C 	0.58830 0.49880 0.19190 0.36700
C 	C 	0.58710 0.58700 0.26690 -0.14600
C 	C 	0.58530 0.65510 0.25490 0.06800
C 	C 	0.25420 0.27740 0.15540 0.45200
C 	C 	0.29520 0.24260 0.07400 -0.18200
C 	C 	0.37210 0.25960 0.07390 0.12000
C 	C 	0.58830 0.80810 0.30690 0.36300
C 	C 	0.58710 0.73310 0.32010 -0.14200
C 	C 	0.58530 0.74510 0.40020 0.06700
C 	C 	0.25420 0.84460 0.12200 0.44800
C 	C 	0.29520 0.92600 0.16860 -0.15400
C 	C 	0.37210 0.92610 0.18570 0.15700
C 	C 	0.40890 0.00000 0.22670 -0.22100
C 	C 	0.49180 0.00000 0.24720 0.42500
C 	C 	0.25750 0.00000 0.20140 0.07100
C 	C 	0.40890 0.22670 -0.00000 -0.22100
C 	C 	0.49180 0.24720 -0.00000 0.42500
C 	C 	0.25750 0.20140 -0.00000 0.07100
C 	C 	0.40890 0.77330 0.77330 -0.17400
C 	C 	0.49180 0.75280 0.75280 0.46500
C 	C 	0.25750 0.79860 0.79860 0.12200
C 	C 	0.90890 0.00000 0.77330 -0.15800
C 	C 	0.99180 0.00000 0.75280 0.20900
C 	C 	0.75750 0.00000 0.79860 0.05100
C 	C 	0.90890 0.77330 -0.00000 -0.15800
C 	C 	0.99180 0.75280 -0.00000 0.20900
C 	C 	0.75750 0.79860 -0.00000 0.05100
C 	C 	0.90890 0.22670 0.22670 -0.13900
C 	C 	0.99180 0.24720 0.24720 0.24600
C 	C 	0.75750 0.20140 0.20140 0.11400
O 	O 	0.60910 0.20740 0.44360 -0.46900
O 	O 	0.57510 0.12410 0.48610 -0.37300
O 	O 	0.28960 0.22040 0.31040 -0.53000
O 	O 	0.18450 0.15120 0.27370 -0.50900
O 	O 	0.52110 0.06830 0.28650 -0.50700
O 	O 	0.60910 0.23620 0.79260 -0.46700
O 	O 	0.57510 0.36200 0.87590 -0.35200
O 	O 	0.28960 0.09000 0.77960 -0.53400
O 	O 	0.18450 0.12250 0.84880 -0.49800
O 	O 	0.52110 0.21820 0.93170 -0.47600
O 	O 	0.60910 0.55640 0.76380 -0.46300
O 	O 	0.57510 0.51390 0.63800 -0.36500
O 	O 	0.28960 0.68960 0.91000 -0.51200
O 	O 	0.18450 0.72630 0.87750 -0.49300
O 	O 	0.52110 0.71350 0.78180 -0.50400
O 	O 	0.10910 0.79260 0.55640 -0.45400
O 	O 	0.07510 0.87590 0.51390 -0.33800
O 	O 	0.78960 0.77960 0.68960 -0.53500
O 	O 	0.68450 0.84880 0.72630 -0.49500
O 	O 	0.02110 0.93170 0.71350 -0.35800
O 	O 	0.10910 0.76380 0.20740 -0.45500
O 	O 	0.07510 0.63800 0.12410 -0.35800
O 	O 	0.78960 0.91000 0.22040 -0.52200
O 	O 	0.68450 0.87750 0.15120 -0.50300
O 	O 	0.02110 0.78180 0.06830 -0.38700
O 	O 	0.10910 0.44360 0.23620 -0.46100
O 	O 	0.07510 0.48610 0.36200 -0.35100
O 	O 	0.78960 0.31040 0.09000 -0.55000
O 	O 	0.68450 0.27370 0.12250 -0.51700
O 	O 	0.02110 0.28650 0.21820 -0.39900
O 	O 	0.10910 0.23620 0.44360 -0.46100
O 	O 	0.07510 0.36200 0.48610 -0.35100
O 	O 	0.78960 0.09000 0.31040 -0.55000
O 	O 	0.68450 0.12250 0.27370 -0.51700
O 	O 	0.02110 0.21820 0.28650 -0.39900
O 	O 	0.10910 0.55640 0.79260 -0.45400
O 	O 	0.07510 0.51390 0.87590 -0.33800
O 	O 	0.78960 0.68960 0.77960 -0.53500
O 	O 	0.68450 0.72630 0.84880 -0.49500
O 	O 	0.02110 0.71350 0.93170 -0.35800
O 	O 	0.10910 0.20740 0.76380 -0.45500
O 	O 	0.07510 0.12410 0.63800 -0.35800
O 	O 	0.78960 0.22040 0.91000 -0.52200
O 	O 	0.68450 0.15120 0.87750 -0.50300
O 	O 	0.02110 0.06830 0.78180 -0.38700
O 	O 	0.60910 0.76380 0.55640 -0.46300
O 	O 	0.57510 0.63800 0.51390 -0.36500
O 	O 	0.28960 0.91000 0.68960 -0.51200
O 	O 	0.18450 0.87750 0.72630 -0.49300
O 	O 	0.52110 0.78180 0.71350 -0.50400
O 	O 	0.60910 0.44360 0.20740 -0.46900
O 	O 	0.57510 0.48610 0.12410 -0.37300
O 	O 	0.28960 0.31040 0.22040 -0.53000
O 	O 	0.18450 0.27370 0.15120 -0.50900
O 	O 	0.52110 0.28650 0.06830 -0.50700
O 	O 	0.60910 0.79260 0.23620 -0.46700
O 	O 	0.57510 0.87590 0.36200 -0.35200
O 	O 	0.28960 0.77960 0.09000 -0.53400
O 	O 	0.18450 0.84880 0.12250 -0.49800
O 	O 	0.52110 0.93170 0.21820 -0.47600
O 	O 	0.66200 0.00000 0.33960 -0.73500
O 	O 	0.66200 0.33960 -0.00000 -0.73500
O 	O 	0.66200 0.66040 0.66040 -0.71400
O 	O 	0.16200 0.00000 0.66040 -0.72900
O 	O 	0.16200 0.66040 -0.00000 -0.72900
O 	O 	0.16200 0.33960 0.33960 -0.70900
