data_crystal

_cell_length_a 12.60600
_cell_length_b 12.90600
_cell_length_c 27.73700
_cell_angle_alpha 92.97000
_cell_angle_beta  90.00000
_cell_angle_gamma 90.00000

_symmetry_space_group_name_	'P 1'
_symmetry_space_group_name_H-M	'P 1'

loop_
_symmetry_equiv_pos_as_xyz
  x,y,z

loop_
_atom_site_label
_atom_site_type_symbol
_atom_site_fract_x
_atom_site_fract_y
_atom_site_fract_z
_atom_site_charge
Zn	Zn	0.95515 0.89762 0.86567 1.23200
Zn	Zn	0.79922 0.04182 0.79019 1.17700
Zn	Zn	0.42279 0.42814 0.97392 1.19600
Zn	Zn	0.45515 0.60238 0.63433 1.23200
Zn	Zn	0.29922 0.45818 0.70981 1.17700
Zn	Zn	0.92279 0.07186 0.52608 1.19600
Zn	Zn	0.04485 0.10238 0.13433 1.23100
Zn	Zn	0.20078 0.95818 0.20981 1.17600
Zn	Zn	0.57721 0.57186 0.02608 1.19500
Zn	Zn	0.54485 0.39762 0.36567 1.23100
Zn	Zn	0.70078 0.54182 0.29019 1.17600
Zn	Zn	0.07721 0.92814 0.47392 1.19500
H 	H 	0.69160 0.70350 0.89850 0.01700
H 	H 	0.47200 0.52580 0.82700 0.00200
H 	H 	0.63240 0.74410 0.75730 0.00800
H 	H 	0.04850 0.91270 0.03360 0.03300
H 	H 	0.30810 0.76670 0.08320 0.01800
H 	H 	0.20160 0.70340 0.94640 0.02500
H 	H 	0.19160 0.79650 0.60150 0.01700
H 	H 	0.97200 0.97420 0.67300 0.00200
H 	H 	0.13240 0.75590 0.74270 0.00900
H 	H 	0.54850 0.58730 0.46640 0.03300
H 	H 	0.80810 0.73330 0.41680 0.01800
H 	H 	0.70160 0.79660 0.55360 0.02500
H 	H 	0.30840 0.29650 0.10150 0.01700
H 	H 	0.52800 0.47420 0.17300 0.00200
H 	H 	0.36760 0.25590 0.24270 0.00800
H 	H 	0.95150 0.08730 0.96640 0.03300
H 	H 	0.69190 0.23330 0.91680 0.01800
H 	H 	0.79840 0.29660 0.05360 0.02500
H 	H 	0.80840 0.20350 0.39850 0.01700
H 	H 	0.02800 0.02580 0.32700 0.00200
H 	H 	0.86760 0.24410 0.25730 0.00900
H 	H 	0.45150 0.41270 0.53360 0.03300
H 	H 	0.19190 0.26670 0.58320 0.01800
H 	H 	0.29840 0.20340 0.44640 0.02500
C 	C 	0.67390 0.73700 0.82764 -0.18800
C 	C 	0.65340 0.68530 0.86982 0.11300
C 	C 	0.57730 0.60770 0.86986 -0.18100
C 	C 	0.52440 0.57870 0.82712 0.11800
C 	C 	0.54780 0.62640 0.78483 -0.19800
C 	C 	0.62010 0.70800 0.78575 0.12100
C 	C 	0.75030 0.82460 0.82903 0.43200
C 	C 	0.54890 0.55930 0.91593 0.42100
C 	C 	0.49060 0.59060 0.73947 0.46000
C 	C 	0.11800 0.81520 0.98356 -0.12900
C 	C 	0.10540 0.86520 0.02833 0.07100
C 	C 	0.17510 0.84690 0.06582 -0.15100
C 	C 	0.25820 0.77680 0.05821 0.08200
C 	C 	0.26830 0.72110 0.01362 -0.14800
C 	C 	0.19630 0.74120 0.97658 0.07800
C 	C 	0.04490 0.84310 0.94370 0.33900
C 	C 	0.16090 0.90430 0.11437 0.39500
C 	C 	0.35450 0.63980 0.00695 0.42400
C 	C 	0.17390 0.76300 0.67236 -0.18800
C 	C 	0.15340 0.81470 0.63018 0.11300
C 	C 	0.07730 0.89230 0.63014 -0.18200
C 	C 	0.02440 0.92130 0.67288 0.11900
C 	C 	0.04780 0.87360 0.71517 -0.19700
C 	C 	0.12010 0.79200 0.71425 0.12100
C 	C 	0.25030 0.67540 0.67097 0.43200
C 	C 	0.04890 0.94070 0.58407 0.42300
C 	C 	0.99060 0.90940 0.76053 0.45800
C 	C 	0.61800 0.68480 0.51644 -0.13100
C 	C 	0.60540 0.63480 0.47167 0.07300
C 	C 	0.67510 0.65310 0.43418 -0.15100
C 	C 	0.75820 0.72320 0.44179 0.08200
C 	C 	0.76830 0.77890 0.48638 -0.14700
C 	C 	0.69630 0.75880 0.52342 0.07700
C 	C 	0.54490 0.65690 0.55630 0.33800
C 	C 	0.66090 0.59570 0.38563 0.39500
C 	C 	0.85450 0.86020 0.49305 0.42400
C 	C 	0.32610 0.26300 0.17236 -0.18800
C 	C 	0.34660 0.31470 0.13018 0.11300
C 	C 	0.42270 0.39230 0.13014 -0.18100
C 	C 	0.47560 0.42130 0.17288 0.11800
C 	C 	0.45220 0.37360 0.21517 -0.19800
C 	C 	0.37990 0.29200 0.21425 0.12100
C 	C 	0.24970 0.17540 0.17097 0.43200
C 	C 	0.45110 0.44070 0.08407 0.42100
C 	C 	0.50940 0.40940 0.26053 0.46000
C 	C 	0.88200 0.18480 0.01644 -0.12900
C 	C 	0.89460 0.13480 0.97167 0.07100
C 	C 	0.82490 0.15310 0.93418 -0.15100
C 	C 	0.74180 0.22320 0.94179 0.08200
C 	C 	0.73170 0.27890 0.98638 -0.14800
C 	C 	0.80370 0.25880 0.02342 0.07800
C 	C 	0.95510 0.15690 0.05630 0.33900
C 	C 	0.83910 0.09570 0.88563 0.39500
C 	C 	0.64550 0.36020 0.99305 0.42400
C 	C 	0.82610 0.23700 0.32764 -0.18800
C 	C 	0.84660 0.18530 0.36982 0.11300
C 	C 	0.92270 0.10770 0.36986 -0.18200
C 	C 	0.97560 0.07870 0.32712 0.11900
C 	C 	0.95220 0.12640 0.28483 -0.19700
C 	C 	0.87990 0.20800 0.28575 0.12100
C 	C 	0.74970 0.32460 0.32903 0.43200
C 	C 	0.95110 0.05930 0.41593 0.42300
C 	C 	0.00940 0.09060 0.23947 0.45800
C 	C 	0.38200 0.31520 0.48356 -0.13100
C 	C 	0.39460 0.36520 0.52833 0.07300
C 	C 	0.32490 0.34690 0.56582 -0.15100
C 	C 	0.24180 0.27680 0.55821 0.08200
C 	C 	0.23170 0.22110 0.51362 -0.14700
C 	C 	0.30370 0.24120 0.47658 0.07700
C 	C 	0.45510 0.34310 0.44370 0.33800
C 	C 	0.33910 0.40430 0.61437 0.39500
C 	C 	0.14550 0.13980 0.50695 0.42400
O 	O 	0.74030 0.89300 0.79946 -0.49100
O 	O 	0.82150 0.82230 0.86155 -0.48700
O 	O 	0.47900 0.48880 0.91357 -0.48400
O 	O 	0.59410 0.59300 0.95382 -0.49400
O 	O 	0.51720 0.62840 0.70056 -0.49000
O 	O 	0.41910 0.52680 0.74485 -0.54800
O 	O 	0.95590 0.88350 0.95393 -0.33600
O 	O 	0.07420 0.83220 0.90135 -0.43200
O 	O 	0.23370 0.89840 0.14459 -0.51700
O 	O 	0.07490 0.95370 0.12241 -0.52400
O 	O 	0.32860 0.55930 0.98274 -0.47600
O 	O 	0.44080 0.66020 0.02601 -0.48800
O 	O 	0.24030 0.60700 0.70054 -0.49200
O 	O 	0.32150 0.67770 0.63845 -0.48700
O 	O 	0.97900 0.01120 0.58643 -0.48500
O 	O 	0.09410 0.90700 0.54618 -0.49400
O 	O 	0.01720 0.87160 0.79944 -0.48900
O 	O 	0.91910 0.97320 0.75515 -0.54700
O 	O 	0.45590 0.61650 0.54607 -0.33600
O 	O 	0.57420 0.66780 0.59865 -0.43200
O 	O 	0.73370 0.60160 0.35541 -0.51600
O 	O 	0.57490 0.54630 0.37759 -0.52300
O 	O 	0.82860 0.94070 0.51726 -0.47600
O 	O 	0.94080 0.83980 0.47399 -0.48800
O 	O 	0.25970 0.10700 0.20054 -0.49100
O 	O 	0.17850 0.17770 0.13845 -0.48700
O 	O 	0.52100 0.51120 0.08643 -0.48400
O 	O 	0.40590 0.40700 0.04618 -0.49400
O 	O 	0.48280 0.37160 0.29944 -0.49000
O 	O 	0.58090 0.47320 0.25515 -0.54800
O 	O 	0.04410 0.11650 0.04607 -0.33600
O 	O 	0.92580 0.16780 0.09865 -0.43200
O 	O 	0.76630 0.10160 0.85541 -0.51700
O 	O 	0.92510 0.04630 0.87759 -0.52400
O 	O 	0.67140 0.44070 0.01726 -0.47600
O 	O 	0.55920 0.33980 0.97399 -0.48800
O 	O 	0.75970 0.39300 0.29946 -0.49200
O 	O 	0.67850 0.32230 0.36155 -0.48700
O 	O 	0.02100 0.98880 0.41357 -0.48500
O 	O 	0.90590 0.09300 0.45382 -0.49400
O 	O 	0.98280 0.12840 0.20056 -0.48900
O 	O 	0.08090 0.02680 0.24485 -0.54700
O 	O 	0.54410 0.38350 0.45393 -0.33600
O 	O 	0.42580 0.33220 0.40135 -0.43200
O 	O 	0.26630 0.39840 0.64459 -0.51600
O 	O 	0.42510 0.45370 0.62241 -0.52300
O 	O 	0.17140 0.05930 0.48274 -0.47600
O 	O 	0.05920 0.16020 0.52601 -0.48800
