data_crystal

_cell_length_a 11.93390
_cell_length_b 12.43690
_cell_length_c 17.96270
_cell_angle_alpha 90.00000
_cell_angle_beta  104.05100
_cell_angle_gamma 90.00000

_symmetry_space_group_name_	'P 1'
_symmetry_space_group_name_H-M	'P 1'

loop_
_symmetry_equiv_pos_as_xyz
  x,y,z

loop_
_atom_site_label
_atom_site_type_symbol
_atom_site_fract_x
_atom_site_fract_y
_atom_site_fract_z
_atom_site_charge
Zn	Zn	0.04609 0.74166 0.76826 1.24500
Zn	Zn	0.25640 0.93705 0.77874 1.24200
Zn	Zn	0.45391 0.24166 0.73174 1.24700
Zn	Zn	0.24360 0.43705 0.72126 1.24300
Zn	Zn	0.95391 0.25834 0.23174 1.24500
Zn	Zn	0.74360 0.06295 0.22126 1.24200
Zn	Zn	0.54609 0.75834 0.26826 1.24700
Zn	Zn	0.75640 0.56295 0.27874 1.24300
C 	C 	0.35270 0.69190 0.95130 -0.20800
C 	C 	0.31620 0.66910 0.01760 0.32500
C 	C 	0.39190 0.63280 0.08290 0.29100
C 	C 	0.50670 0.61280 0.08550 -0.19900
C 	C 	0.54070 0.63020 0.01910 0.28600
C 	C 	0.46930 0.67180 0.95440 0.30900
C 	C 	0.27520 0.74260 0.88190 0.51600
C 	C 	0.59670 0.58390 0.15760 0.45900
C 	C 	0.44640 0.09410 0.84590 0.49100
C 	C 	0.47360 0.04500 0.92580 -0.23300
C 	C 	0.55910 0.96770 0.94720 0.31700
C 	C 	0.58430 0.92470 0.02060 0.30000
C 	C 	0.05940 0.94520 0.85500 0.48500
C 	C 	0.02930 0.97460 0.93010 -0.19400
C 	C 	0.91960 0.01190 0.93240 0.30900
C 	C 	0.89230 0.03710 0.99940 0.31700
C 	C 	0.14730 0.19190 0.54870 -0.20600
C 	C 	0.18380 0.16910 0.48240 0.32000
C 	C 	0.10810 0.13280 0.41710 0.29700
C 	C 	0.99330 0.11280 0.41450 -0.20300
C 	C 	0.95930 0.13020 0.48090 0.28000
C 	C 	0.03070 0.17180 0.54560 0.31700
C 	C 	0.22480 0.24260 0.61810 0.51600
C 	C 	0.90330 0.08390 0.34240 0.45200
C 	C 	0.05360 0.59410 0.65410 0.48700
C 	C 	0.02640 0.54500 0.57420 -0.23500
C 	C 	0.94090 0.46770 0.55280 0.32200
C 	C 	0.91570 0.42470 0.47940 0.29700
C 	C 	0.44060 0.44520 0.64500 0.49300
C 	C 	0.47070 0.47460 0.56990 -0.18100
C 	C 	0.58040 0.51190 0.56760 0.30400
C 	C 	0.60770 0.53710 0.50060 0.30900
C 	C 	0.64730 0.30810 0.04870 -0.20900
C 	C 	0.68380 0.33090 0.98240 0.32400
C 	C 	0.60810 0.36720 0.91710 0.29100
C 	C 	0.49330 0.38720 0.91450 -0.19900
C 	C 	0.45930 0.36980 0.98090 0.28600
C 	C 	0.53070 0.32820 0.04560 0.30900
C 	C 	0.72480 0.25740 0.11810 0.51600
C 	C 	0.40330 0.41610 0.84240 0.45900
C 	C 	0.55360 0.90590 0.15410 0.49100
C 	C 	0.52640 0.95500 0.07420 -0.23300
C 	C 	0.44090 0.03230 0.05280 0.31700
C 	C 	0.41570 0.07530 0.97940 0.30000
C 	C 	0.94060 0.05480 0.14500 0.48500
C 	C 	0.97070 0.02540 0.06990 -0.19400
C 	C 	0.08040 0.98810 0.06760 0.30900
C 	C 	0.10770 0.96290 0.00060 0.31700
C 	C 	0.85270 0.80810 0.45130 -0.20600
C 	C 	0.81620 0.83090 0.51760 0.32000
C 	C 	0.89190 0.86720 0.58290 0.29700
C 	C 	0.00670 0.88720 0.58550 -0.20300
C 	C 	0.04070 0.86980 0.51910 0.28000
C 	C 	0.96930 0.82820 0.45440 0.31700
C 	C 	0.77520 0.75740 0.38190 0.51600
C 	C 	0.09670 0.91610 0.65760 0.45200
C 	C 	0.94640 0.40590 0.34590 0.48700
C 	C 	0.97360 0.45500 0.42580 -0.23500
C 	C 	0.05910 0.53230 0.44720 0.32200
C 	C 	0.08430 0.57530 0.52060 0.29700
C 	C 	0.55940 0.55480 0.35500 0.49300
C 	C 	0.52930 0.52540 0.43010 -0.18100
C 	C 	0.41960 0.48810 0.43240 0.30400
C 	C 	0.39230 0.46290 0.49940 0.30900
O 	O 	0.31920 0.82260 0.85640 -0.42000
O 	O 	0.17670 0.70280 0.85600 -0.43100
O 	O 	0.64160 0.49420 0.16570 -0.31300
O 	O 	0.62840 0.65960 0.20650 -0.53500
O 	O 	0.35460 0.06900 0.79850 -0.45900
O 	O 	0.51710 0.15950 0.83100 -0.36900
O 	O 	0.14650 0.98970 0.84310 -0.38500
O 	O 	0.99520 0.87630 0.81640 -0.36800
O 	O 	0.18080 0.32260 0.64360 -0.41900
O 	O 	0.32330 0.20280 0.64400 -0.42900
O 	O 	0.85840 0.99420 0.33430 -0.30600
O 	O 	0.87160 0.15960 0.29350 -0.53500
O 	O 	0.14540 0.56900 0.70150 -0.45900
O 	O 	0.98290 0.65950 0.66900 -0.36500
O 	O 	0.35350 0.48970 0.65690 -0.38400
O 	O 	0.50480 0.37630 0.68360 -0.37800
O 	O 	0.68080 0.17740 0.14360 -0.42000
O 	O 	0.82330 0.29720 0.14400 -0.43100
O 	O 	0.35840 0.50580 0.83430 -0.31300
O 	O 	0.37160 0.34040 0.79350 -0.53500
O 	O 	0.64540 0.93100 0.20150 -0.45900
O 	O 	0.48290 0.84050 0.16900 -0.36900
O 	O 	0.85350 0.01030 0.15690 -0.38500
O 	O 	0.00480 0.12370 0.18360 -0.36800
O 	O 	0.81920 0.67740 0.35640 -0.41900
O 	O 	0.67670 0.79720 0.35600 -0.42900
O 	O 	0.14160 0.00580 0.66570 -0.30600
O 	O 	0.12840 0.84040 0.70650 -0.53500
O 	O 	0.85460 0.43100 0.29850 -0.45900
O 	O 	0.01710 0.34050 0.33100 -0.36500
O 	O 	0.64650 0.51030 0.34310 -0.38400
O 	O 	0.49520 0.62370 0.31640 -0.37800
F 	F 	0.20540 0.68680 0.01930 -0.34200
F 	F 	0.35320 0.62030 0.14747 -0.36400
F 	F 	0.65240 0.61070 0.01760 -0.34900
F 	F 	0.51100 0.69160 0.89300 -0.34700
F 	F 	0.61710 0.93270 0.89644 -0.33300
F 	F 	0.66820 0.84910 0.03850 -0.35500
F 	F 	0.84000 0.02830 0.86570 -0.32500
F 	F 	0.78630 0.07700 0.99760 -0.36300
F 	F 	0.29460 0.18680 0.48070 -0.34300
F 	F 	0.14680 0.12030 0.35253 -0.36300
F 	F 	0.84760 0.11070 0.48240 -0.34900
F 	F 	0.98900 0.19160 0.60700 -0.35100
F 	F 	0.88290 0.43270 0.60356 -0.33400
F 	F 	0.83180 0.34910 0.46150 -0.35500
F 	F 	0.66000 0.52830 0.63430 -0.32400
F 	F 	0.71370 0.57700 0.50240 -0.36400
F 	F 	0.79460 0.31320 0.98070 -0.34200
F 	F 	0.64680 0.37970 0.85253 -0.36400
F 	F 	0.34760 0.38930 0.98240 -0.34900
F 	F 	0.48900 0.30840 0.10700 -0.34700
F 	F 	0.38290 0.06730 0.10356 -0.33300
F 	F 	0.33180 0.15090 0.96150 -0.35500
F 	F 	0.16000 0.97170 0.13430 -0.32500
F 	F 	0.21370 0.92300 0.00240 -0.36300
F 	F 	0.70540 0.81320 0.51930 -0.34300
F 	F 	0.85320 0.87970 0.64747 -0.36300
F 	F 	0.15240 0.88930 0.51760 -0.34900
F 	F 	0.01100 0.80840 0.39300 -0.35100
F 	F 	0.11710 0.56730 0.39644 -0.33400
F 	F 	0.16820 0.65090 0.53850 -0.35500
F 	F 	0.34000 0.47170 0.36570 -0.32400
F 	F 	0.28630 0.42300 0.49760 -0.36400
