data_crystal

_cell_length_a 10.48210
_cell_length_b 10.48210
_cell_length_c 13.92830
_cell_angle_alpha 90.00000
_cell_angle_beta  90.00000
_cell_angle_gamma 90.00000

_symmetry_space_group_name_	'P 1'
_symmetry_space_group_name_H-M	'P 1'

loop_
_symmetry_equiv_pos_as_xyz
  x,y,z

loop_
_atom_site_label
_atom_site_type_symbol
_atom_site_fract_x
_atom_site_fract_y
_atom_site_fract_z
_atom_site_charge
Na	Na	0.59700 0.59700 -0.00000 0.59600
Na	Na	0.40300 0.40300 0.50000 0.60000
Na	Na	0.90300 0.09700 0.75000 0.59800
Na	Na	0.09700 0.90300 0.25000 0.59800
H 	H 	0.55270 0.64380 0.76880 0.17300
H 	H 	0.69320 0.94890 0.64190 0.09200
H 	H 	0.58590 0.88670 0.49920 0.00700
H 	H 	0.47230 0.69870 0.49330 0.13200
H 	H 	0.44730 0.35620 0.26880 0.17200
H 	H 	0.30680 0.05110 0.14190 0.08500
H 	H 	0.41410 0.11330 0.99920 0.03000
H 	H 	0.52770 0.30130 0.99330 0.15600
H 	H 	0.85620 0.05270 0.51880 0.16900
H 	H 	0.55110 0.19320 0.39190 0.09000
H 	H 	0.61330 0.08590 0.24920 0.00600
H 	H 	0.80130 0.97230 0.24330 0.13400
H 	H 	0.14380 0.94730 0.01880 0.14600
H 	H 	0.44890 0.80680 0.89190 0.09900
H 	H 	0.38670 0.91410 0.74920 0.00300
H 	H 	0.19870 0.02770 0.74330 0.13600
H 	H 	0.94730 0.14380 0.98120 0.18600
H 	H 	0.80680 0.44890 0.10810 0.08300
H 	H 	0.91410 0.38670 0.25080 0.00800
H 	H 	0.02770 0.19870 0.25670 0.13400
H 	H 	0.05270 0.85620 0.48120 0.17000
H 	H 	0.19320 0.55110 0.60810 0.09000
H 	H 	0.08590 0.61330 0.75080 0.00700
H 	H 	0.97230 0.80130 0.75670 0.13700
H 	H 	0.64380 0.55270 0.23120 0.17200
H 	H 	0.94890 0.69320 0.35810 0.09100
H 	H 	0.88670 0.58590 0.50080 0.00700
H 	H 	0.69870 0.47230 0.50670 0.13200
H 	H 	0.35620 0.44730 0.73120 0.17200
H 	H 	0.05110 0.30680 0.85810 0.09900
H 	H 	0.11330 0.41410 0.00080 -0.02000
H 	H 	0.30130 0.52770 0.00670 0.10800
C 	C 	0.69960 0.82490 0.81400 0.27400
C 	C 	0.63360 0.79700 0.71890 0.05700
C 	C 	0.64470 0.87240 0.64000 -0.13100
C 	C 	0.58170 0.83380 0.55450 0.11400
C 	C 	0.51530 0.72200 0.55070 -0.24000
C 	C 	0.51000 0.63890 0.63310 0.30100
C 	C 	0.30040 0.17510 0.31400 0.27700
C 	C 	0.36640 0.20300 0.21890 0.05200
C 	C 	0.35530 0.12760 0.14000 -0.11900
C 	C 	0.41830 0.16620 0.05450 0.08500
C 	C 	0.48470 0.27800 0.05070 -0.26800
C 	C 	0.49000 0.36110 0.13310 0.30700
C 	C 	0.67510 0.19960 0.56400 0.27600
C 	C 	0.70300 0.13360 0.46890 0.05500
C 	C 	0.62760 0.14470 0.39000 -0.13000
C 	C 	0.66620 0.08170 0.30450 0.11400
C 	C 	0.77800 0.01530 0.30070 -0.24200
C 	C 	0.86110 0.01000 0.38310 0.29400
C 	C 	0.32490 0.80040 0.06400 0.25000
C 	C 	0.29700 0.86640 0.96890 0.08400
C 	C 	0.37240 0.85530 0.89000 -0.14400
C 	C 	0.33380 0.91830 0.80450 0.12300
C 	C 	0.22200 0.98470 0.80070 -0.24700
C 	C 	0.13890 0.99000 0.88310 0.29800
C 	C 	0.80040 0.32490 0.93600 0.29600
C 	C 	0.86640 0.29700 0.03110 0.03200
C 	C 	0.85530 0.37240 0.11000 -0.12000
C 	C 	0.91830 0.33380 0.19550 0.10900
C 	C 	0.98470 0.22200 0.19930 -0.24000
C 	C 	0.99000 0.13890 0.11690 0.29400
C 	C 	0.19960 0.67510 0.43600 0.27600
C 	C 	0.13360 0.70300 0.53110 0.05500
C 	C 	0.14470 0.62760 0.61000 -0.13100
C 	C 	0.08170 0.66620 0.69550 0.11500
C 	C 	0.01530 0.77800 0.69930 -0.24300
C 	C 	0.01000 0.86110 0.61690 0.29400
C 	C 	0.82490 0.69960 0.18600 0.27600
C 	C 	0.79700 0.63360 0.28110 0.05500
C 	C 	0.87240 0.64470 0.36000 -0.13000
C 	C 	0.83380 0.58170 0.44550 0.11400
C 	C 	0.72200 0.51530 0.44930 -0.24000
C 	C 	0.63890 0.51000 0.36690 0.30100
C 	C 	0.17510 0.30040 0.68600 0.27400
C 	C 	0.20300 0.36640 0.78110 0.06100
C 	C 	0.12760 0.35530 0.86000 -0.14500
C 	C 	0.16620 0.41830 0.94550 0.14900
C 	C 	0.27800 0.48470 0.94930 -0.21100
C 	C 	0.36110 0.49000 0.86690 0.29400
N 	N 	0.56380 0.68670 0.71510 -0.24000
N 	N 	0.43620 0.31330 0.21510 -0.24000
N 	N 	0.81330 0.06380 0.46510 -0.23800
N 	N 	0.18670 0.93620 0.96510 -0.22000
N 	N 	0.93620 0.18670 0.03490 -0.25000
N 	N 	0.06380 0.81330 0.53490 -0.23800
N 	N 	0.68670 0.56380 0.28490 -0.23900
N 	N 	0.31330 0.43620 0.78490 -0.24000
O 	O 	0.68040 0.74760 0.88180 -0.26000
O 	O 	0.77240 0.91980 0.81580 -0.26200
O 	O 	0.46340 0.52880 0.63240 -0.30200
O 	O 	0.31960 0.25240 0.38180 -0.26800
O 	O 	0.22760 0.08020 0.31580 -0.26700
O 	O 	0.53660 0.47120 0.13240 -0.30800
O 	O 	0.75240 0.18040 0.63180 -0.26900
O 	O 	0.58020 0.27240 0.56580 -0.26800
O 	O 	0.97120 0.96340 0.38240 -0.29500
O 	O 	0.24760 0.81960 0.13180 -0.26600
O 	O 	0.41980 0.72760 0.06580 -0.27000
O 	O 	0.02880 0.03660 0.88240 -0.29200
O 	O 	0.81960 0.24760 0.86820 -0.27200
O 	O 	0.72760 0.41980 0.93420 -0.26500
O 	O 	0.03660 0.02880 0.11760 -0.29900
O 	O 	0.18040 0.75240 0.36820 -0.27000
O 	O 	0.27240 0.58020 0.43420 -0.26800
O 	O 	0.96340 0.97120 0.61760 -0.29500
O 	O 	0.74760 0.68040 0.11820 -0.27400
O 	O 	0.91980 0.77240 0.18420 -0.26900
O 	O 	0.52880 0.46340 0.36760 -0.30200
O 	O 	0.25240 0.31960 0.61820 -0.26700
O 	O 	0.08020 0.22760 0.68420 -0.26600
O 	O 	0.47120 0.53660 0.86760 -0.29400
