data_crystal

_cell_length_a 7.61450
_cell_length_b 11.13300
_cell_length_c 16.86880
_cell_angle_alpha 90.00000
_cell_angle_beta  90.00000
_cell_angle_gamma 90.00000

_symmetry_space_group_name_	'P 1'
_symmetry_space_group_name_H-M	'P 1'

loop_
_symmetry_equiv_pos_as_xyz
  x,y,z

loop_
_atom_site_label
_atom_site_type_symbol
_atom_site_fract_x
_atom_site_fract_y
_atom_site_fract_z
_atom_site_charge
Zn	Zn	0.89771 0.85908 0.03842 1.20900
Zn	Zn	0.60229 0.14092 0.53842 1.21000
Zn	Zn	0.10229 0.35908 0.46158 1.21000
Zn	Zn	0.39771 0.64092 0.96158 1.20900
H 	H 	0.78340 0.79480 0.78410 0.03000
H 	H 	0.75510 0.60740 0.36790 0.11500
H 	H 	0.98420 0.40080 0.15490 0.01000
H 	H 	0.74070 0.82700 0.64950 0.09400
H 	H 	0.98740 0.31460 0.28000 0.09900
H 	H 	0.75460 0.69440 0.24270 0.00600
H 	H 	0.98700 0.12400 0.80560 0.03700
H 	H 	0.93900 0.17400 0.66900 0.07400
H 	H 	0.71660 0.20520 0.28410 0.02800
H 	H 	0.74490 0.39260 0.86790 0.11400
H 	H 	0.51580 0.59920 0.65490 0.01000
H 	H 	0.75930 0.17300 0.14950 0.09500
H 	H 	0.51260 0.68540 0.78000 0.09900
H 	H 	0.74540 0.30560 0.74270 0.00600
H 	H 	0.51300 0.87600 0.30560 0.03700
H 	H 	0.56100 0.82600 0.16900 0.07300
H 	H 	0.21660 0.29480 0.71590 0.02800
H 	H 	0.24490 0.10740 0.13210 0.11600
H 	H 	0.01580 0.90080 0.34510 0.00900
H 	H 	0.25930 0.32700 0.85050 0.09400
H 	H 	0.01260 0.81460 0.22000 0.10100
H 	H 	0.24540 0.19440 0.25730 0.00500
H 	H 	0.01300 0.62400 0.69440 0.03700
H 	H 	0.06100 0.67400 0.83100 0.07300
H 	H 	0.28340 0.70520 0.21590 0.02800
H 	H 	0.25510 0.89260 0.63210 0.11300
H 	H 	0.48420 0.09920 0.84510 0.01100
H 	H 	0.24070 0.67300 0.35050 0.09400
H 	H 	0.48740 0.18540 0.72000 0.09700
H 	H 	0.25460 0.80560 0.75730 0.00700
H 	H 	0.48700 0.37600 0.19440 0.03700
H 	H 	0.43900 0.32600 0.33100 0.07300
C 	C 	0.91440 0.08500 0.69350 -0.10900
C 	C 	0.81570 0.86770 0.76160 0.05500
C 	C 	0.88930 0.95500 0.80820 -0.11000
C 	C 	0.79960 0.56490 0.32480 -0.18800
C 	C 	0.86890 0.55630 0.18550 -0.16000
C 	C 	0.93740 0.44290 0.19760 0.10800
C 	C 	0.78890 0.88700 0.68100 -0.14900
C 	C 	0.86460 0.45020 0.33580 0.14600
C 	C 	0.91280 0.93390 0.89350 0.31000
C 	C 	0.93780 0.39010 0.27270 -0.20900
C 	C 	0.80040 0.61770 0.24960 0.09900
C 	C 	0.83520 0.99770 0.64830 0.10400
C 	C 	0.93800 0.06430 0.77400 0.04100
C 	C 	0.87270 0.61610 0.10550 0.37900
C 	C 	0.58560 0.91500 0.19350 -0.11200
C 	C 	0.68430 0.13230 0.26160 0.05600
C 	C 	0.61070 0.04500 0.30820 -0.11000
C 	C 	0.70040 0.43510 0.82480 -0.18700
C 	C 	0.63110 0.44370 0.68550 -0.16000
C 	C 	0.56260 0.55710 0.69760 0.10800
C 	C 	0.71110 0.11300 0.18100 -0.15100
C 	C 	0.63540 0.54980 0.83580 0.14600
C 	C 	0.58720 0.06610 0.39350 0.31100
C 	C 	0.56220 0.60990 0.77270 -0.20900
C 	C 	0.69960 0.38230 0.74960 0.09900
C 	C 	0.66480 0.00230 0.14830 0.10700
C 	C 	0.56200 0.93570 0.27400 0.04100
C 	C 	0.62730 0.38390 0.60550 0.37900
C 	C 	0.08560 0.58500 0.80650 -0.11100
C 	C 	0.18430 0.36770 0.73840 0.05500
C 	C 	0.11070 0.45500 0.69180 -0.11000
C 	C 	0.20040 0.06490 0.17520 -0.19400
C 	C 	0.13110 0.05630 0.31450 -0.16600
C 	C 	0.06260 0.94290 0.30240 0.11500
C 	C 	0.21110 0.38700 0.81900 -0.15100
C 	C 	0.13540 0.95020 0.16420 0.15100
C 	C 	0.08720 0.43390 0.60650 0.31100
C 	C 	0.06220 0.89010 0.22730 -0.21300
C 	C 	0.19960 0.11770 0.25040 0.10500
C 	C 	0.16480 0.49770 0.85170 0.10600
C 	C 	0.06200 0.56430 0.72600 0.04000
C 	C 	0.12730 0.11610 0.39450 0.38100
C 	C 	0.41440 0.41500 0.30650 -0.11100
C 	C 	0.31570 0.63230 0.23840 0.05600
C 	C 	0.38930 0.54500 0.19180 -0.11000
C 	C 	0.29960 0.93510 0.67520 -0.18400
C 	C 	0.36890 0.94370 0.81450 -0.15700
C 	C 	0.43740 0.05710 0.80240 0.10300
C 	C 	0.28890 0.61300 0.31900 -0.15000
C 	C 	0.36460 0.04980 0.66420 0.14200
C 	C 	0.41280 0.56610 0.10650 0.31100
C 	C 	0.43780 0.10990 0.72730 -0.20600
C 	C 	0.30040 0.88230 0.75040 0.09600
C 	C 	0.33520 0.50230 0.35170 0.10700
C 	C 	0.43800 0.43570 0.22600 0.04100
C 	C 	0.37270 0.88390 0.89450 0.37800
N 	N 	0.80120 0.01940 0.56440 -0.22500
N 	N 	0.85640 0.39170 0.41260 -0.23900
N 	N 	0.69880 0.98060 0.06440 -0.22700
N 	N 	0.64360 0.60830 0.91260 -0.23900
N 	N 	0.19880 0.51940 0.93560 -0.22700
N 	N 	0.14360 0.89170 0.08740 -0.23800
N 	N 	0.30120 0.48060 0.43560 -0.22600
N 	N 	0.35640 0.10830 0.58740 -0.23900
O 	O 	0.86640 0.83220 0.92330 -0.43200
O 	O 	0.97720 0.01350 0.93810 -0.32400
O 	O 	0.82270 0.72310 0.10210 -0.48800
O 	O 	0.91750 0.55540 0.04640 -0.27900
O 	O 	0.63360 0.16780 0.42330 -0.43200
O 	O 	0.52280 0.98650 0.43810 -0.32600
O 	O 	0.67730 0.27690 0.60210 -0.48700
O 	O 	0.58250 0.44460 0.54640 -0.27900
O 	O 	0.13360 0.33220 0.57670 -0.43300
O 	O 	0.02280 0.51350 0.56190 -0.32600
O 	O 	0.17730 0.22310 0.39790 -0.48800
O 	O 	0.08250 0.05540 0.45360 -0.28100
O 	O 	0.36640 0.66780 0.07670 -0.43200
O 	O 	0.47720 0.48650 0.06190 -0.32500
O 	O 	0.32270 0.77690 0.89790 -0.48700
O 	O 	0.41750 0.94460 0.95360 -0.27900
