data_crystal

_cell_length_a 11.70900
_cell_length_b 11.79600
_cell_length_c 12.19000
_cell_angle_alpha 76.13000
_cell_angle_beta  88.96000
_cell_angle_gamma 73.80000

_symmetry_space_group_name_	'P 1'
_symmetry_space_group_name_H-M	'P 1'

loop_
_symmetry_equiv_pos_as_xyz
  x,y,z

loop_
_atom_site_label
_atom_site_type_symbol
_atom_site_fract_x
_atom_site_fract_y
_atom_site_fract_z
_atom_site_charge
Na	Na	0.59730 0.09190 0.76980 0.57600
Na	Na	0.58350 0.07960 0.07030 0.57200
Na	Na	0.40270 0.90810 0.23020 0.57600
Na	Na	0.41650 0.92040 0.92970 0.57200
Sn	Sn	0.10538 0.41585 0.91053 1.17600
Sn	Sn	0.91301 0.44607 0.61811 1.17800
Sn	Sn	0.89462 0.58415 0.08947 1.17600
Sn	Sn	0.08699 0.55393 0.38189 1.17800
Te	Te	0.93088 0.64306 0.86285 -0.45200
Te	Te	0.02325 0.27097 0.80477 -0.42700
Te	Te	0.96857 0.37054 0.42414 -0.48000
Te	Te	0.06912 0.35694 0.13715 -0.45200
Te	Te	0.97675 0.72903 0.19523 -0.42700
Te	Te	0.03143 0.62946 0.57586 -0.48000
H 	H 	0.31590 0.46360 0.89600 0.10700
H 	H 	0.25140 0.51750 0.77640 0.10100
H 	H 	0.41690 0.34130 0.78150 0.07600
H 	H 	0.29880 0.32770 0.73800 0.02300
H 	H 	0.68790 0.56490 0.57290 0.11300
H 	H 	0.73470 0.61530 0.66440 0.11200
H 	H 	0.59890 0.50030 0.73700 0.06800
H 	H 	0.71960 0.45350 0.80650 0.02800
H 	H 	0.57730 0.74870 0.76420 0.02000
H 	H 	0.54540 0.87440 0.67470 0.00100
H 	H 	0.67880 0.80500 0.71300 0.02800
H 	H 	0.83810 0.11070 0.89490 0.04600
H 	H 	0.88450 0.00710 0.00490 0.03600
H 	H 	0.88960 0.97540 0.88680 0.04800
H 	H 	0.68410 0.53640 0.10400 0.10700
H 	H 	0.74860 0.48250 0.22360 0.10100
H 	H 	0.58310 0.65870 0.21850 0.07600
H 	H 	0.70120 0.67230 0.26200 0.02300
H 	H 	0.31210 0.43510 0.42710 0.11300
H 	H 	0.26530 0.38470 0.33560 0.11200
H 	H 	0.40110 0.49970 0.26300 0.06800
H 	H 	0.28040 0.54650 0.19350 0.02800
H 	H 	0.42270 0.25130 0.23580 0.02000
H 	H 	0.45460 0.12560 0.32530 0.00100
H 	H 	0.32120 0.19500 0.28700 0.02800
H 	H 	0.16190 0.88930 0.10510 0.04600
H 	H 	0.11550 0.99290 0.99510 0.03600
H 	H 	0.11040 0.02460 0.11320 0.04800
C 	C 	0.26960 0.44810 0.84010 -0.46800
C 	C 	0.33950 0.33380 0.80300 -0.19300
C 	C 	0.35380 0.21890 0.89590 0.29500
C 	C 	0.73520 0.54230 0.64240 -0.49900
C 	C 	0.68230 0.46130 0.73460 -0.17200
C 	C 	0.69760 0.33640 0.71650 0.30800
C 	C 	0.59870 0.82310 0.73720 -0.06100
C 	C 	0.84470 0.02740 0.93170 -0.08800
C 	C 	0.73040 0.55190 0.15990 -0.46800
C 	C 	0.66050 0.66620 0.19700 -0.19300
C 	C 	0.64620 0.78110 0.10410 0.29500
C 	C 	0.26480 0.45770 0.35760 -0.49900
C 	C 	0.31770 0.53870 0.26540 -0.17200
C 	C 	0.30240 0.66360 0.28350 0.30800
C 	C 	0.40130 0.17690 0.26280 -0.06100
C 	C 	0.15530 0.97260 0.06830 -0.08800
O 	O 	0.43850 0.12420 0.89390 -0.41700
O 	O 	0.27700 0.21990 0.97160 -0.36200
O 	O 	0.77590 0.29970 0.64820 -0.37900
O 	O 	0.63720 0.27270 0.77070 -0.36200
O 	O 	0.59060 0.88330 0.82470 -0.29200
O 	O 	0.73150 0.01120 0.94400 -0.26000
O 	O 	0.56150 0.87580 0.10610 -0.41700
O 	O 	0.72300 0.78010 0.02840 -0.36200
O 	O 	0.22410 0.70030 0.35180 -0.37900
O 	O 	0.36280 0.72730 0.22930 -0.36200
O 	O 	0.40940 0.11670 0.17530 -0.29200
O 	O 	0.26850 0.98880 0.05600 -0.26000
