data_crystal

_cell_length_a 6.60850
_cell_length_b 11.02160
_cell_length_c 11.02160
_cell_angle_alpha 98.30810
_cell_angle_beta  107.44500
_cell_angle_gamma 107.44500

_symmetry_space_group_name_	'P 1'
_symmetry_space_group_name_H-M	'P 1'

loop_
_symmetry_equiv_pos_as_xyz
  x,y,z

loop_
_atom_site_label
_atom_site_type_symbol
_atom_site_fract_x
_atom_site_fract_y
_atom_site_fract_z
_atom_site_charge
Al	Al	0.00934 0.50290 0.99946 2.37400
Al	Al	0.50944 0.50188 0.99994 2.38700
H 	H 	0.38350 0.11572 0.98912 0.06500
H 	H 	0.73396 0.49210 0.61332 -0.02800
H 	H 	0.62676 0.50736 0.38600 0.09600
H 	H 	0.28118 0.89028 0.01040 0.04200
H 	H 	0.62988 0.89002 0.00984 0.03500
H 	H 	0.27896 0.50818 0.38570 0.11300
H 	H 	0.38410 0.49156 0.61328 -0.00900
H 	H 	0.73308 0.11640 0.98976 0.03600
H 	H 	0.38326 0.63006 0.11878 0.36500
H 	H 	0.63694 0.38888 0.86842 0.47900
C 	C 	0.21898 0.06828 0.99448 -0.33100
C 	C 	0.85370 0.49406 0.56458 0.31000
C 	C 	0.79208 0.50272 0.43334 -0.13800
C 	C 	0.16062 0.93852 0.00750 0.21500
C 	C 	0.79618 0.93828 0.00736 0.31700
C 	C 	0.15688 0.50296 0.43332 -0.28600
C 	C 	0.21784 0.49382 0.56446 0.15700
C 	C 	0.85478 0.06844 0.99472 -0.13200
C 	C 	0.06766 0.13578 0.98844 -0.17400
C 	C 	0.13788 0.27754 0.98464 0.27500
C 	C 	0.06820 0.49018 0.63276 -0.40700
C 	C 	0.13934 0.48980 0.77548 0.38000
C 	C 	0.94236 0.50668 0.36514 0.15900
C 	C 	0.87338 0.50990 0.22314 0.63700
C 	C 	0.94814 0.87070 0.01378 -0.09800
C 	C 	0.87996 0.72808 0.01612 0.72900
O 	O 	0.99610 0.33650 0.98472 -0.58400
O 	O 	0.34098 0.49058 0.83438 -0.78100
O 	O 	0.01626 0.51086 0.16470 -0.70700
O 	O 	0.67836 0.66868 0.01522 -0.55900
O 	O 	0.02266 0.66982 0.01422 -0.70800
O 	O 	0.67178 0.50908 0.16486 -0.55100
O 	O 	0.99764 0.49178 0.83394 -0.60900
O 	O 	0.34054 0.33590 0.98694 -0.76500
O 	O 	0.31582 0.56012 0.05442 -0.94100
O 	O 	0.70372 0.45014 0.94084 -1.36300
