data_crystal

_cell_length_a 6.58440
_cell_length_b 12.26200
_cell_length_c 17.01900
_cell_angle_alpha 90.00000
_cell_angle_beta  90.00000
_cell_angle_gamma 90.00000

_symmetry_space_group_name_	'P 1'
_symmetry_space_group_name_H-M	'P 1'

loop_
_symmetry_equiv_pos_as_xyz
  x,y,z

loop_
_atom_site_label
_atom_site_type_symbol
_atom_site_fract_x
_atom_site_fract_y
_atom_site_fract_z
_atom_site_charge
Al	Al	-0.00000 0.00000 -0.00000 2.35800
Al	Al	-0.00000 0.50000 0.50000 2.39800
Al	Al	0.50000 0.00000 -0.00000 2.36700
Al	Al	0.50000 0.50000 0.50000 2.40700
H 	H 	0.05400 0.68000 0.29660 -0.10800
H 	H 	0.94600 0.18000 0.20340 0.16800
H 	H 	0.55400 0.32000 0.70340 0.04700
H 	H 	0.44600 0.82000 0.79660 0.07200
H 	H 	0.94600 0.32000 0.70340 0.19200
H 	H 	0.05400 0.82000 0.79660 -0.06900
H 	H 	0.44600 0.68000 0.29660 0.04000
H 	H 	0.55400 0.18000 0.20340 0.01800
H 	H 	0.05410 0.78250 0.18230 -0.11100
H 	H 	0.94590 0.28250 0.31770 0.20600
H 	H 	0.55410 0.21750 0.81770 0.07000
H 	H 	0.44590 0.71750 0.68230 0.04500
H 	H 	0.94590 0.21750 0.81770 0.21300
H 	H 	0.05410 0.71750 0.68230 -0.10000
H 	H 	0.44590 0.78250 0.18230 0.03700
H 	H 	0.55410 0.28250 0.31770 0.05700
H 	H 	0.75000 0.12840 0.01700 0.56400
H 	H 	0.25000 0.62840 0.48300 0.51800
H 	H 	0.25000 0.87160 0.98300 0.46500
H 	H 	0.75000 0.37160 0.51700 0.52000
C 	C 	0.93170 0.70130 0.27391 0.19400
C 	C 	0.06830 0.20130 0.22609 -0.18200
C 	C 	0.43170 0.29870 0.72609 0.00100
C 	C 	0.56830 0.79870 0.77391 0.01400
C 	C 	0.06830 0.29870 0.72609 -0.17200
C 	C 	0.93170 0.79870 0.77391 0.17900
C 	C 	0.56830 0.70130 0.27391 0.02000
C 	C 	0.43170 0.20130 0.22609 -0.00400
C 	C 	0.93180 0.76200 0.20527 0.20600
C 	C 	0.06820 0.26200 0.29473 -0.23500
C 	C 	0.43180 0.23800 0.79473 -0.04500
C 	C 	0.56820 0.73800 0.70527 0.05200
C 	C 	0.06820 0.23800 0.79473 -0.21500
C 	C 	0.93180 0.73800 0.70527 0.22400
C 	C 	0.56820 0.76200 0.20527 0.03000
C 	C 	0.43180 0.26200 0.29473 -0.05800
C 	C 	0.75000 0.60990 0.38409 0.56300
C 	C 	0.25000 0.10990 0.11591 0.51000
C 	C 	0.25000 0.39010 0.61591 0.51700
C 	C 	0.75000 0.89010 0.88409 0.55800
C 	C 	0.75000 0.67230 0.30865 -0.16300
C 	C 	0.25000 0.17230 0.19135 -0.14700
C 	C 	0.25000 0.32770 0.69135 -0.10000
C 	C 	0.75000 0.82770 0.80865 -0.10400
C 	C 	0.75000 0.86290 0.09934 0.57800
C 	C 	0.25000 0.36290 0.40066 0.49400
C 	C 	0.25000 0.13710 0.90066 0.47200
C 	C 	0.75000 0.63710 0.59934 0.56600
C 	C 	0.75000 0.79230 0.17087 -0.17400
C 	C 	0.25000 0.29230 0.32913 -0.07300
C 	C 	0.25000 0.20770 0.82913 -0.05200
C 	C 	0.75000 0.70770 0.67087 -0.16300
O 	O 	0.92010 0.89083 0.07230 -0.59300
O 	O 	0.07990 0.39083 0.42770 -0.73700
O 	O 	0.42010 0.10917 0.92770 -0.62400
O 	O 	0.57990 0.60917 0.57230 -0.65300
O 	O 	0.07990 0.10917 0.92770 -0.69300
O 	O 	0.92010 0.60917 0.57230 -0.58000
O 	O 	0.57990 0.89083 0.07230 -0.66700
O 	O 	0.42010 0.39083 0.42770 -0.66500
O 	O 	0.92020 0.58606 0.41325 -0.59100
O 	O 	0.07980 0.08606 0.08675 -0.91800
O 	O 	0.42020 0.41394 0.58675 -0.67200
O 	O 	0.57980 0.91394 0.91325 -0.47900
O 	O 	0.07980 0.41394 0.58675 -0.74300
O 	O 	0.92020 0.91394 0.91325 -0.41100
O 	O 	0.57980 0.58606 0.41325 -0.66500
O 	O 	0.42020 0.08606 0.08675 -0.84700
O 	O 	0.75000 0.06418 0.00511 -1.59800
O 	O 	0.25000 0.56418 0.49489 -1.31900
O 	O 	0.25000 0.93582 0.99489 -0.95000
O 	O 	0.75000 0.43582 0.50511 -1.26000
