data_crystal

_cell_length_a 18.30540
_cell_length_b 18.30540
_cell_length_c 18.30540
_cell_angle_alpha 60.00000
_cell_angle_beta  60.00000
_cell_angle_gamma 60.00000

_symmetry_space_group_name_	'P 1'
_symmetry_space_group_name_H-M	'P 1'

loop_
_symmetry_equiv_pos_as_xyz
  x,y,z

loop_
_atom_site_label
_atom_site_type_symbol
_atom_site_fract_x
_atom_site_fract_y
_atom_site_fract_z
_atom_site_charge
Zn	Zn	0.20570 0.38290 0.20570 1.21200
Zn	Zn	0.38290 0.20570 0.20570 1.21200
Zn	Zn	0.20570 0.20570 0.20570 1.21200
Zn	Zn	0.20570 0.20570 0.38290 1.21200
Zn	Zn	0.61710 0.79430 0.79430 1.21200
Zn	Zn	0.79430 0.61710 0.79430 1.21200
Zn	Zn	0.79430 0.79430 0.79430 1.21200
Zn	Zn	0.79430 0.79430 0.61710 1.21200
H 	H 	0.04300 0.56200 0.04300 0.07500
H 	H 	0.56200 0.04300 0.35200 0.07500
H 	H 	0.04300 0.35200 0.04300 0.07500
H 	H 	0.35200 0.04300 0.56200 0.07500
H 	H 	0.04300 0.04300 0.35200 0.07500
H 	H 	0.56200 0.35200 0.04300 0.07500
H 	H 	0.04300 0.04300 0.56200 0.07500
H 	H 	0.35200 0.56200 0.04300 0.07500
H 	H 	0.04300 0.35200 0.56200 0.07500
H 	H 	0.56200 0.04300 0.04300 0.07500
H 	H 	0.04300 0.56200 0.35200 0.07500
H 	H 	0.35200 0.04300 0.04300 0.07500
H 	H 	0.43800 0.95700 0.95700 0.07500
H 	H 	0.95700 0.43800 0.64800 0.07500
H 	H 	0.64800 0.95700 0.95700 0.07500
H 	H 	0.95700 0.64800 0.43800 0.07500
H 	H 	0.95700 0.95700 0.64800 0.07500
H 	H 	0.64800 0.43800 0.95700 0.07500
H 	H 	0.95700 0.95700 0.43800 0.07500
H 	H 	0.43800 0.64800 0.95700 0.07500
H 	H 	0.64800 0.95700 0.43800 0.07500
H 	H 	0.95700 0.43800 0.95700 0.07500
H 	H 	0.43800 0.95700 0.64800 0.07500
H 	H 	0.95700 0.64800 0.95700 0.07500
C 	C 	0.02820 0.53920 0.02820 -0.05700
C 	C 	0.53920 0.02820 0.40440 -0.05700
C 	C 	0.02820 0.40440 0.02820 -0.05700
C 	C 	0.40440 0.02820 0.53920 -0.05700
C 	C 	0.02820 0.02820 0.40440 -0.05700
C 	C 	0.53920 0.40440 0.02820 -0.05700
C 	C 	0.02820 0.02820 0.53920 -0.05700
C 	C 	0.40440 0.53920 0.02820 -0.05700
C 	C 	0.02820 0.40440 0.53920 -0.05700
C 	C 	0.53920 0.02820 0.02820 -0.05700
C 	C 	0.02820 0.53920 0.40440 -0.05700
C 	C 	0.40440 0.02820 0.02820 -0.05700
C 	C 	0.46080 0.97180 0.97180 -0.05700
C 	C 	0.97180 0.46080 0.59560 -0.05700
C 	C 	0.59560 0.97180 0.97180 -0.05700
C 	C 	0.97180 0.59560 0.46080 -0.05700
C 	C 	0.97180 0.97180 0.59560 -0.05700
C 	C 	0.59560 0.46080 0.97180 -0.05700
C 	C 	0.97180 0.97180 0.46080 -0.05700
C 	C 	0.46080 0.59560 0.97180 -0.05700
C 	C 	0.59560 0.97180 0.46080 -0.05700
C 	C 	0.97180 0.46080 0.97180 -0.05700
C 	C 	0.46080 0.97180 0.59560 -0.05700
C 	C 	0.97180 0.59560 0.97180 -0.05700
C 	C 	0.11460 0.38540 0.11460 0.36200
C 	C 	0.05410 0.44590 0.05410 -0.03500
C 	C 	0.38540 0.11460 0.38540 0.36200
C 	C 	0.44590 0.05410 0.44590 -0.03500
C 	C 	0.11460 0.11460 0.38540 0.36200
C 	C 	0.05410 0.05410 0.44590 -0.03500
C 	C 	0.38540 0.38540 0.11460 0.36200
C 	C 	0.44590 0.44590 0.05410 -0.03500
C 	C 	0.11460 0.38540 0.38540 0.36200
C 	C 	0.05410 0.44590 0.44590 -0.03500
C 	C 	0.38540 0.11460 0.11460 0.36200
C 	C 	0.44590 0.05410 0.05410 -0.03500
C 	C 	0.61460 0.88540 0.88540 0.36200
C 	C 	0.55410 0.94590 0.94590 -0.03500
C 	C 	0.88540 0.61460 0.61460 0.36200
C 	C 	0.94590 0.55410 0.55410 -0.03500
C 	C 	0.88540 0.88540 0.61460 0.36200
C 	C 	0.94590 0.94590 0.55410 -0.03500
C 	C 	0.61460 0.61460 0.88540 0.36200
C 	C 	0.55410 0.55410 0.94590 -0.03500
C 	C 	0.61460 0.88540 0.61460 0.36200
C 	C 	0.55410 0.94590 0.55410 -0.03500
C 	C 	0.88540 0.61460 0.88540 0.36200
C 	C 	0.94590 0.55410 0.94590 -0.03500
O 	O 	0.25000 0.25000 0.25000 -0.93000
O 	O 	0.75000 0.75000 0.75000 -0.93000
O 	O 	0.13360 0.42920 0.13360 -0.50800
O 	O 	0.42920 0.13360 0.30360 -0.50800
O 	O 	0.13360 0.30360 0.13360 -0.50800
O 	O 	0.30360 0.13360 0.42920 -0.50800
O 	O 	0.13360 0.13360 0.30360 -0.50800
O 	O 	0.42920 0.30360 0.13360 -0.50800
O 	O 	0.13360 0.13360 0.42920 -0.50800
O 	O 	0.30360 0.42920 0.13360 -0.50800
O 	O 	0.13360 0.30360 0.42920 -0.50800
O 	O 	0.42920 0.13360 0.13360 -0.50800
O 	O 	0.13360 0.42920 0.30360 -0.50800
O 	O 	0.30360 0.13360 0.13360 -0.50800
O 	O 	0.57080 0.86640 0.86640 -0.50800
O 	O 	0.86640 0.57080 0.69640 -0.50800
O 	O 	0.69640 0.86640 0.86640 -0.50800
O 	O 	0.86640 0.69640 0.57080 -0.50800
O 	O 	0.86640 0.86640 0.69640 -0.50800
O 	O 	0.69640 0.57080 0.86640 -0.50800
O 	O 	0.86640 0.86640 0.57080 -0.50800
O 	O 	0.57080 0.69640 0.86640 -0.50800
O 	O 	0.69640 0.86640 0.57080 -0.50800
O 	O 	0.86640 0.57080 0.86640 -0.50800
O 	O 	0.57080 0.86640 0.69640 -0.50800
O 	O 	0.86640 0.69640 0.86640 -0.50800
