data_crystal

_cell_length_a 10.33400
_cell_length_b 11.67200
_cell_length_c 20.34100
_cell_angle_alpha 90.00000
_cell_angle_beta  90.00000
_cell_angle_gamma 90.00000

_symmetry_space_group_name_	'P 1'
_symmetry_space_group_name_H-M	'P 1'

loop_
_symmetry_equiv_pos_as_xyz
  x,y,z

loop_
_atom_site_label
_atom_site_type_symbol
_atom_site_fract_x
_atom_site_fract_y
_atom_site_fract_z
_atom_site_charge
Zn	Zn	0.15269 0.67487 0.01147 1.23300
Zn	Zn	0.46562 0.58053 0.00717 1.20900
Zn	Zn	0.34731 0.32513 0.51147 1.23500
Zn	Zn	0.03438 0.41947 0.50717 1.21000
Zn	Zn	0.84731 0.17487 0.48854 1.23600
Zn	Zn	0.53438 0.08053 0.49283 1.21000
Zn	Zn	0.65269 0.82513 0.98854 1.23500
Zn	Zn	0.96562 0.91947 0.99283 1.20900
H 	H 	0.06410 0.56070 0.82190 0.04400
H 	H 	0.44000 0.47190 0.80800 0.03900
H 	H 	0.03480 0.51460 0.71140 0.03300
H 	H 	0.41190 0.43200 0.69760 0.03900
H 	H 	0.24410 0.97230 0.98720 -0.05500
H 	H 	0.15670 0.94670 0.88160 0.23500
H 	H 	0.30820 0.94670 0.87820 0.25100
H 	H 	0.23190 0.83080 0.87440 0.24200
H 	H 	0.43590 0.43930 0.32190 0.04400
H 	H 	0.06000 0.52810 0.30800 0.03900
H 	H 	0.46520 0.48540 0.21140 0.03300
H 	H 	0.08810 0.56800 0.19760 0.03800
H 	H 	0.25590 0.02770 0.48720 -0.05600
H 	H 	0.34330 0.05330 0.38160 0.23400
H 	H 	0.19180 0.05330 0.37820 0.25000
H 	H 	0.26810 0.16920 0.37440 0.24100
H 	H 	0.93590 0.06070 0.67810 0.04400
H 	H 	0.56000 0.97190 0.69200 0.04000
H 	H 	0.96520 0.01460 0.78860 0.03200
H 	H 	0.58810 0.93200 0.80240 0.03800
H 	H 	0.75590 0.47230 0.51280 -0.05600
H 	H 	0.84330 0.44670 0.61840 0.23500
H 	H 	0.69180 0.44670 0.62180 0.25100
H 	H 	0.76810 0.33080 0.62560 0.24200
H 	H 	0.56410 0.93930 0.17810 0.04400
H 	H 	0.94000 0.02810 0.19200 0.04100
H 	H 	0.53480 0.98540 0.28860 0.03200
H 	H 	0.91190 0.06800 0.30240 0.03800
H 	H 	0.74410 0.52770 0.01280 -0.05500
H 	H 	0.65670 0.55330 0.11840 0.23500
H 	H 	0.80820 0.55330 0.12180 0.25200
H 	H 	0.73190 0.66920 0.12560 0.24200
C 	C 	0.27630 0.55640 0.89613 0.37600
C 	C 	0.25610 0.52420 0.82549 -0.08900
C 	C 	0.13370 0.53520 0.79688 -0.02700
C 	C 	0.35950 0.48270 0.78840 -0.02300
C 	C 	0.11610 0.50790 0.73060 -0.01200
C 	C 	0.34240 0.45760 0.72264 -0.01600
C 	C 	0.22100 0.47070 0.69364 -0.09700
C 	C 	0.20520 0.44590 0.62083 0.40000
C 	C 	0.36250 0.83120 0.98743 0.28000
C 	C 	0.24000 0.89510 0.96835 0.21100
C 	C 	0.23360 0.90580 0.89372 -0.74200
C 	C 	0.22370 0.44360 0.39613 0.37600
C 	C 	0.24390 0.47580 0.32549 -0.08900
C 	C 	0.36630 0.46480 0.29688 -0.02800
C 	C 	0.14050 0.51730 0.28840 -0.02400
C 	C 	0.38390 0.49210 0.23060 -0.01200
C 	C 	0.15760 0.54240 0.22264 -0.01600
C 	C 	0.27900 0.52930 0.19364 -0.09700
C 	C 	0.29480 0.55410 0.12083 0.40000
C 	C 	0.13750 0.16880 0.48743 0.27800
C 	C 	0.26000 0.10490 0.46835 0.21200
C 	C 	0.26640 0.09420 0.39372 -0.74100
C 	C 	0.72370 0.05640 0.60387 0.37600
C 	C 	0.74390 0.02420 0.67451 -0.08800
C 	C 	0.86630 0.03520 0.70312 -0.02900
C 	C 	0.64050 0.98270 0.71160 -0.02500
C 	C 	0.88390 0.00790 0.76940 -0.01000
C 	C 	0.65760 0.95760 0.77736 -0.01500
C 	C 	0.77900 0.97070 0.80636 -0.09900
C 	C 	0.79480 0.94590 0.87917 0.40100
C 	C 	0.63750 0.33120 0.51257 0.27800
C 	C 	0.76000 0.39510 0.53165 0.21200
C 	C 	0.76640 0.40580 0.60628 -0.74200
C 	C 	0.77630 0.94360 0.10387 0.37500
C 	C 	0.75610 0.97580 0.17451 -0.08600
C 	C 	0.63370 0.96480 0.20312 -0.03000
C 	C 	0.85950 0.01730 0.21160 -0.02700
C 	C 	0.61610 0.99210 0.26940 -0.01000
C 	C 	0.84240 0.04240 0.27736 -0.01400
C 	C 	0.72100 0.02930 0.30636 -0.09900
C 	C 	0.70520 0.05410 0.37917 0.40100
C 	C 	0.86250 0.66880 0.01257 0.28100
C 	C 	0.74000 0.60490 0.03165 0.21100
C 	C 	0.73360 0.59420 0.10628 -0.74200
O 	O 	0.17660 0.58290 0.92899 -0.47100
O 	O 	0.39090 0.55380 0.91703 -0.49500
O 	O 	0.09480 0.46010 0.59666 -0.51000
O 	O 	0.30560 0.41620 0.59097 -0.48700
O 	O 	0.35040 0.73124 0.00984 -0.54700
O 	O 	0.46870 0.88030 0.97586 -0.42300
O 	O 	0.12930 0.83866 0.99421 -0.59500
O 	O 	0.32340 0.41710 0.42899 -0.47300
O 	O 	0.10910 0.44620 0.41703 -0.49600
O 	O 	0.40520 0.53990 0.09666 -0.51000
O 	O 	0.19440 0.58380 0.09097 -0.48900
O 	O 	0.14960 0.26876 0.50984 -0.54500
O 	O 	0.03130 0.11970 0.47586 -0.42300
O 	O 	0.37070 0.16134 0.49421 -0.59700
O 	O 	0.82340 0.08290 0.57101 -0.47300
O 	O 	0.60910 0.05380 0.58297 -0.49500
O 	O 	0.90520 0.96010 0.90334 -0.51200
O 	O 	0.69440 0.91620 0.90903 -0.48800
O 	O 	0.64960 0.23124 0.49016 -0.54500
O 	O 	0.53130 0.38030 0.52414 -0.42300
O 	O 	0.87070 0.33866 0.50579 -0.59700
O 	O 	0.67660 0.91710 0.07101 -0.47200
O 	O 	0.89090 0.94620 0.08297 -0.49300
O 	O 	0.59480 0.03990 0.40334 -0.51100
O 	O 	0.80560 0.08380 0.40903 -0.48700
O 	O 	0.85040 0.76876 0.99016 -0.54800
O 	O 	0.96870 0.61970 0.02414 -0.42100
O 	O 	0.62930 0.66134 0.00579 -0.59600
