data_crystal

_cell_length_a 8.42410
_cell_length_b 14.38850
_cell_length_c 15.47450
_cell_angle_alpha 90.00000
_cell_angle_beta  90.00000
_cell_angle_gamma 90.00000

_symmetry_space_group_name_	'P 1'
_symmetry_space_group_name_H-M	'P 1'

loop_
_symmetry_equiv_pos_as_xyz
  x,y,z

loop_
_atom_site_label
_atom_site_type_symbol
_atom_site_fract_x
_atom_site_fract_y
_atom_site_fract_z
_atom_site_charge
Zn	Zn	0.21275 0.24968 0.18986 1.20800
Zn	Zn	0.21275 0.75032 0.81014 1.20800
Zn	Zn	0.78725 0.25032 0.68986 1.20800
Zn	Zn	0.78725 0.74968 0.31014 1.20800
H 	H 	0.59860 0.07340 0.24480 0.11400
H 	H 	0.59860 0.92660 0.75520 0.11400
H 	H 	0.40140 0.42660 0.74480 0.11400
H 	H 	0.40140 0.57340 0.25520 0.11400
H 	H 	0.25450 0.88370 0.26590 0.07800
H 	H 	0.25450 0.11630 0.73410 0.07800
H 	H 	0.74550 0.61630 0.76590 0.07700
H 	H 	0.74550 0.38370 0.23410 0.07700
H 	H 	0.44490 0.77160 0.28800 0.01000
H 	H 	0.44490 0.22840 0.71200 0.01000
H 	H 	0.55510 0.72840 0.78800 0.01000
H 	H 	0.55510 0.27160 0.21200 0.01000
H 	H 	0.95940 0.16130 0.90920 0.09800
H 	H 	0.95940 0.83870 0.09080 0.09800
H 	H 	0.04060 0.33870 0.40920 0.09900
H 	H 	0.04060 0.66130 0.59080 0.09900
H 	H 	0.26090 0.37520 0.89840 0.08000
H 	H 	0.26090 0.62480 0.10160 0.08000
H 	H 	0.73910 0.12480 0.39840 0.08000
H 	H 	0.73910 0.87520 0.60160 0.08000
H 	H 	0.29080 0.36410 0.04280 -0.02700
H 	H 	0.29080 0.63590 0.95720 -0.02700
H 	H 	0.70920 0.13590 0.54280 -0.02700
H 	H 	0.70920 0.86410 0.45720 -0.02700
H 	H 	0.90180 0.92010 0.27700 0.14800
H 	H 	0.90180 0.07990 0.72300 0.14800
H 	H 	0.09820 0.57990 0.77700 0.14800
H 	H 	0.09820 0.42010 0.22300 0.14800
H 	H 	0.86260 0.01920 0.25890 0.19200
H 	H 	0.86260 0.98080 0.74110 0.19200
H 	H 	0.13740 0.48080 0.75890 0.19300
H 	H 	0.13740 0.51920 0.24110 0.19300
H 	H 	0.00070 0.12940 0.12590 0.14200
H 	H 	0.00070 0.87060 0.87410 0.14200
H 	H 	0.99930 0.37060 0.62590 0.14200
H 	H 	0.99930 0.62940 0.37410 0.14200
H 	H 	0.91940 0.09340 0.04730 0.15700
H 	H 	0.91940 0.90660 0.95270 0.15700
H 	H 	0.08060 0.40660 0.54730 0.15700
H 	H 	0.08060 0.59340 0.45270 0.15700
C 	C 	0.68030 0.94250 0.26900 0.20100
C 	C 	0.68030 0.05750 0.73100 0.20100
C 	C 	0.31970 0.55750 0.76900 0.20000
C 	C 	0.31970 0.44250 0.23100 0.20000
C 	C 	0.56570 0.01260 0.25420 -0.16900
C 	C 	0.56570 0.98740 0.74580 -0.16900
C 	C 	0.43430 0.48740 0.75420 -0.16700
C 	C 	0.43430 0.51260 0.24580 -0.16700
C 	C 	0.40810 0.99220 0.25350 0.00600
C 	C 	0.40810 0.00780 0.74650 0.00600
C 	C 	0.59190 0.50780 0.75350 0.00400
C 	C 	0.59190 0.49220 0.24650 0.00400
C 	C 	0.36140 0.89980 0.26660 -0.09200
C 	C 	0.36140 0.10020 0.73340 -0.09200
C 	C 	0.63860 0.60020 0.76660 -0.09100
C 	C 	0.63860 0.39980 0.23340 -0.09100
C 	C 	0.47610 0.83310 0.28050 0.04500
C 	C 	0.47610 0.16690 0.71950 0.04500
C 	C 	0.52390 0.66690 0.78050 0.04400
C 	C 	0.52390 0.33310 0.21950 0.04400
C 	C 	0.28970 0.06620 0.23510 0.32000
C 	C 	0.28970 0.93380 0.76490 0.32000
C 	C 	0.71030 0.43380 0.73510 0.32100
C 	C 	0.71030 0.56620 0.26490 0.32100
C 	C 	0.05510 0.19590 0.02410 0.19500
C 	C 	0.05510 0.80410 0.97590 0.19500
C 	C 	0.94490 0.30410 0.52410 0.19600
C 	C 	0.94490 0.69590 0.47590 0.19600
C 	C 	0.02990 0.20190 0.93600 -0.17100
C 	C 	0.02990 0.79810 0.06400 -0.17100
C 	C 	0.97010 0.29810 0.43600 -0.17300
C 	C 	0.97010 0.70190 0.56400 -0.17300
C 	C 	0.10830 0.26740 0.88820 0.01700
C 	C 	0.10830 0.73260 0.11180 0.01700
C 	C 	0.89170 0.23260 0.38820 0.01900
C 	C 	0.89170 0.76740 0.61180 0.01900
C 	C 	0.20770 0.32930 0.92930 -0.12400
C 	C 	0.20770 0.67070 0.07070 -0.12400
C 	C 	0.79230 0.17070 0.42930 -0.12500
C 	C 	0.79230 0.82930 0.57070 -0.12500
C 	C 	0.22540 0.32130 0.01510 0.08300
C 	C 	0.22540 0.67870 0.98490 0.08300
C 	C 	0.77460 0.17870 0.51510 0.08400
C 	C 	0.77460 0.82130 0.48490 0.08400
C 	C 	0.07720 0.27550 0.79160 0.32000
C 	C 	0.07720 0.72450 0.20840 0.32000
C 	C 	0.92280 0.22450 0.29160 0.31900
C 	C 	0.92280 0.77550 0.70840 0.31900
N 	N 	0.63420 0.85440 0.28360 -0.28400
N 	N 	0.63420 0.14560 0.71640 -0.28400
N 	N 	0.36580 0.64560 0.78360 -0.28400
N 	N 	0.36580 0.35440 0.21640 -0.28400
N 	N 	0.83240 0.96300 0.26820 -0.35200
N 	N 	0.83240 0.03700 0.73180 -0.35200
N 	N 	0.16760 0.53700 0.76820 -0.35200
N 	N 	0.16760 0.46300 0.23180 -0.35200
N 	N 	0.15650 0.25700 0.06310 -0.29700
N 	N 	0.15650 0.74300 0.93690 -0.29700
N 	N 	0.84350 0.24300 0.56310 -0.29700
N 	N 	0.84350 0.75700 0.43690 -0.29700
N 	N 	0.98340 0.13220 0.07120 -0.34000
N 	N 	0.98340 0.86780 0.92880 -0.34000
N 	N 	0.01660 0.36780 0.57120 -0.34000
N 	N 	0.01660 0.63220 0.42880 -0.34000
O 	O 	0.14480 0.04710 0.24350 -0.30400
O 	O 	0.14480 0.95290 0.75650 -0.30400
O 	O 	0.85520 0.45290 0.74350 -0.30400
O 	O 	0.85520 0.54710 0.25650 -0.30400
O 	O 	0.34350 0.14280 0.21340 -0.47600
O 	O 	0.34350 0.85720 0.78660 -0.47600
O 	O 	0.65650 0.35720 0.71340 -0.47700
O 	O 	0.65650 0.64280 0.28660 -0.47700
O 	O 	0.96150 0.22260 0.76590 -0.47200
O 	O 	0.96150 0.77740 0.23410 -0.47200
O 	O 	0.03850 0.27740 0.26590 -0.47200
O 	O 	0.03850 0.72260 0.73410 -0.47200
O 	O 	0.15270 0.32790 0.74750 -0.30600
O 	O 	0.15270 0.67210 0.25250 -0.30600
O 	O 	0.84730 0.17210 0.24750 -0.30600
O 	O 	0.84730 0.82790 0.75250 -0.30600
