data_crystal

_cell_length_a 5.82650
_cell_length_b 19.05130
_cell_length_c 19.05130
_cell_angle_alpha 90.00000
_cell_angle_beta  90.00000
_cell_angle_gamma 90.00000

_symmetry_space_group_name_	'P 1'
_symmetry_space_group_name_H-M	'P 1'

loop_
_symmetry_equiv_pos_as_xyz
  x,y,z

loop_
_atom_site_label
_atom_site_type_symbol
_atom_site_fract_x
_atom_site_fract_y
_atom_site_fract_z
_atom_site_charge
Zn	Zn	0.25000 0.72761 0.27239 1.24800
Zn	Zn	0.75000 0.27239 0.72761 1.25900
Zn	Zn	0.00000 0.22761 0.22761 1.23800
Zn	Zn	0.50000 0.77239 0.77239 1.25400
Zn	Zn	0.75000 0.77565 0.22435 1.25400
Zn	Zn	0.25000 0.22435 0.77565 1.24200
Zn	Zn	0.50000 0.27565 0.27565 1.24800
Zn	Zn	0.00000 0.72435 0.72435 1.23200
H 	H 	0.40600 0.62400 0.23900 0.40200
H 	H 	0.97800 0.49300 0.30350 0.12100
H 	H 	0.40520 0.46000 0.21640 0.04400
H 	H 	0.68600 0.39000 0.25000 0.29100
H 	H 	0.17420 0.54960 0.20690 0.01600
H 	H 	0.45420 0.50330 0.32940 0.09500
H 	H 	0.90600 0.37600 0.76100 0.41600
H 	H 	0.47800 0.50700 0.69650 0.06100
H 	H 	0.90520 0.54000 0.78360 0.04600
H 	H 	0.18600 0.61000 0.75000 0.30000
H 	H 	0.67420 0.45040 0.79310 0.02600
H 	H 	0.95420 0.49670 0.67060 0.11700
H 	H 	0.15600 0.26100 0.12400 0.42100
H 	H 	0.72800 0.19650 0.99300 0.06900
H 	H 	0.15520 0.28360 0.96000 0.04900
H 	H 	0.43600 0.25000 0.89000 0.28600
H 	H 	0.92420 0.29310 0.04960 0.02200
H 	H 	0.20420 0.17060 0.00330 0.09500
H 	H 	0.65600 0.73900 0.87600 0.40900
H 	H 	0.22800 0.80350 0.00700 0.05400
H 	H 	0.65520 0.71640 0.04000 0.05100
H 	H 	0.93600 0.75000 0.11000 0.30600
H 	H 	0.42420 0.70690 0.95040 0.01400
H 	H 	0.70420 0.82940 0.99670 0.10400
H 	H 	0.34400 0.87600 0.73900 0.40000
H 	H 	0.77200 0.00700 0.80350 0.08700
H 	H 	0.34480 0.04000 0.71640 0.05000
H 	H 	0.06400 0.11000 0.75000 0.27000
H 	H 	0.57580 0.95040 0.70690 0.02800
H 	H 	0.29580 0.99670 0.82940 0.08300
H 	H 	0.84400 0.12400 0.26100 0.38600
H 	H 	0.27200 0.99300 0.19650 0.07200
H 	H 	0.84480 0.96000 0.28360 0.05200
H 	H 	0.56400 0.89000 0.25000 0.28900
H 	H 	0.07580 0.04960 0.29310 0.02000
H 	H 	0.79580 0.00330 0.17060 0.09300
H 	H 	0.59400 0.23900 0.62400 0.40600
H 	H 	0.02200 0.30350 0.49300 0.02100
H 	H 	0.59480 0.21640 0.46000 0.05700
H 	H 	0.31400 0.25000 0.39000 0.28500
H 	H 	0.82580 0.20690 0.54960 0.02700
H 	H 	0.54580 0.32940 0.50330 0.09300
H 	H 	0.09400 0.76100 0.37600 0.39100
H 	H 	0.52200 0.69650 0.50700 0.08000
H 	H 	0.09480 0.78360 0.54000 0.05500
H 	H 	0.81400 0.75000 0.61000 0.27400
H 	H 	0.32580 0.79310 0.45040 0.01600
H 	H 	0.04580 0.67060 0.49670 0.07000
C 	C 	0.91850 0.61750 0.24190 0.38000
C 	C 	0.11360 0.52210 0.31250 -0.03200
C 	C 	0.36970 0.42940 0.25630 0.01800
C 	C 	0.16920 0.38250 0.23760 0.27500
C 	C 	0.14020 0.57500 0.25040 0.04400
C 	C 	0.31920 0.47400 0.32020 0.04700
C 	C 	0.41850 0.38250 0.75810 0.34400
C 	C 	0.61360 0.47790 0.68750 0.04600
C 	C 	0.86970 0.57060 0.74370 0.06200
C 	C 	0.66920 0.61750 0.76240 0.32800
C 	C 	0.64020 0.42500 0.74960 0.06400
C 	C 	0.81920 0.52600 0.67980 0.01200
C 	C 	0.66850 0.25810 0.11750 0.33000
C 	C 	0.86360 0.18750 0.02210 0.05800
C 	C 	0.11970 0.24370 0.92940 -0.03300
C 	C 	0.91920 0.26240 0.88250 0.38400
C 	C 	0.89020 0.24960 0.07500 0.11500
C 	C 	0.06920 0.17980 0.97400 0.01100
C 	C 	0.16850 0.74190 0.88250 0.27400
C 	C 	0.36360 0.81250 0.97790 0.03700
C 	C 	0.61970 0.75630 0.07060 0.00900
C 	C 	0.41920 0.73760 0.11750 0.34200
C 	C 	0.39020 0.75040 0.92500 0.08700
C 	C 	0.56920 0.82020 0.02600 0.02800
C 	C 	0.83150 0.88250 0.74190 0.40200
C 	C 	0.63640 0.97790 0.81250 0.02400
C 	C 	0.38030 0.07060 0.75630 0.00100
C 	C 	0.58080 0.11750 0.73760 0.33800
C 	C 	0.60980 0.92500 0.75040 0.05700
C 	C 	0.43080 0.02600 0.82020 0.04800
C 	C 	0.33150 0.11750 0.25810 0.34700
C 	C 	0.13640 0.02210 0.18750 0.00400
C 	C 	0.88030 0.92940 0.24370 0.04500
C 	C 	0.08080 0.88250 0.26240 0.29300
C 	C 	0.10980 0.07500 0.24960 0.02700
C 	C 	0.93080 0.97400 0.17980 0.06500
C 	C 	0.08150 0.24190 0.61750 0.30000
C 	C 	0.88640 0.31250 0.52210 0.09300
C 	C 	0.63030 0.25630 0.42940 -0.00700
C 	C 	0.83080 0.23760 0.38250 0.40100
C 	C 	0.85980 0.25040 0.57500 0.09700
C 	C 	0.68080 0.32020 0.47400 0.02800
C 	C 	0.58150 0.75810 0.38250 0.33400
C 	C 	0.38640 0.68750 0.47790 0.01600
C 	C 	0.13030 0.74370 0.57060 -0.05300
C 	C 	0.33080 0.76240 0.61750 0.35000
C 	C 	0.35980 0.74960 0.42500 0.07900
C 	C 	0.18080 0.67980 0.52600 0.06400
O 	O 	0.93930 0.68380 0.24300 -0.51600
O 	O 	0.73860 0.58460 0.23180 -0.27800
O 	O 	0.32440 0.62210 0.26680 -0.65800
O 	O 	0.07540 0.56010 0.37460 -0.09800
O 	O 	0.28770 0.42920 0.37910 -0.11200
O 	O 	0.56680 0.38520 0.27150 -0.49700
O 	O 	0.19420 0.31580 0.24690 -0.55300
O 	O 	0.99110 0.40860 0.21360 -0.24000
O 	O 	0.43930 0.31620 0.75700 -0.53800
O 	O 	0.23860 0.41540 0.76820 -0.29800
O 	O 	0.82440 0.37790 0.73320 -0.65600
O 	O 	0.57540 0.43990 0.62540 -0.09600
O 	O 	0.78770 0.57080 0.62090 -0.08100
O 	O 	0.06680 0.61480 0.72850 -0.55000
O 	O 	0.69420 0.68420 0.75310 -0.54100
O 	O 	0.49110 0.59140 0.78640 -0.29600
O 	O 	0.68930 0.25700 0.18380 -0.51800
O 	O 	0.48860 0.26820 0.08460 -0.27700
O 	O 	0.07440 0.23320 0.12210 -0.71600
O 	O 	0.82540 0.12540 0.06010 -0.07700
O 	O 	0.03770 0.12090 0.92920 -0.11800
O 	O 	0.31680 0.22850 0.88520 -0.49300
O 	O 	0.94420 0.25310 0.81580 -0.54300
O 	O 	0.74110 0.28640 0.90860 -0.29900
O 	O 	0.18930 0.74300 0.81620 -0.52800
O 	O 	0.98860 0.73180 0.91540 -0.21800
O 	O 	0.57440 0.76680 0.87790 -0.66400
O 	O 	0.32540 0.87460 0.93990 -0.10000
O 	O 	0.53770 0.87910 0.07080 -0.10200
O 	O 	0.81680 0.77150 0.11480 -0.49500
O 	O 	0.44420 0.74690 0.18420 -0.56100
O 	O 	0.24110 0.71360 0.09140 -0.31700
O 	O 	0.81070 0.81620 0.74300 -0.53000
O 	O 	0.01140 0.91540 0.73180 -0.33000
O 	O 	0.42560 0.87790 0.76680 -0.65600
O 	O 	0.67460 0.93990 0.87460 -0.08000
O 	O 	0.46230 0.07080 0.87910 -0.10000
O 	O 	0.18320 0.11480 0.77150 -0.49500
O 	O 	0.55580 0.18420 0.74690 -0.55200
O 	O 	0.75890 0.09140 0.71360 -0.27300
O 	O 	0.31070 0.18380 0.25700 -0.54000
O 	O 	0.51140 0.08460 0.26820 -0.27100
O 	O 	0.92560 0.12210 0.23320 -0.59700
O 	O 	0.17460 0.06010 0.12540 -0.10300
O 	O 	0.96230 0.92920 0.12090 -0.08300
O 	O 	0.68320 0.88520 0.22850 -0.49700
O 	O 	0.05580 0.81580 0.25310 -0.57100
O 	O 	0.25890 0.90860 0.28640 -0.28900
O 	O 	0.06070 0.24300 0.68380 -0.54600
O 	O 	0.26140 0.23180 0.58460 -0.27200
O 	O 	0.67560 0.26680 0.62210 -0.66200
O 	O 	0.92460 0.37460 0.56010 -0.08200
O 	O 	0.71230 0.37910 0.42920 -0.08900
O 	O 	0.43320 0.27150 0.38520 -0.49400
O 	O 	0.80580 0.24690 0.31580 -0.55300
O 	O 	0.00890 0.21360 0.40860 -0.34600
O 	O 	0.56070 0.75700 0.31620 -0.52500
O 	O 	0.76140 0.76820 0.41540 -0.24900
O 	O 	0.17560 0.73320 0.37790 -0.66400
O 	O 	0.42460 0.62540 0.43990 -0.08400
O 	O 	0.21230 0.62090 0.57080 -0.11900
O 	O 	0.93320 0.72850 0.61480 -0.43400
O 	O 	0.30580 0.75310 0.68420 -0.56600
O 	O 	0.50890 0.78640 0.59140 -0.29200
