data_crystal

_cell_length_a 10.78680
_cell_length_b 13.98060
_cell_length_c 17.90660
_cell_angle_alpha 111.60500
_cell_angle_beta  90.00000
_cell_angle_gamma 90.00000

_symmetry_space_group_name_	'P 1'
_symmetry_space_group_name_H-M	'P 1'

loop_
_symmetry_equiv_pos_as_xyz
  x,y,z

loop_
_atom_site_label
_atom_site_type_symbol
_atom_site_fract_x
_atom_site_fract_y
_atom_site_fract_z
_atom_site_charge
Zn	Zn	0.72189 0.26942 0.17631 1.16300
Zn	Zn	0.76695 0.75925 0.33053 1.16100
Zn	Zn	0.22189 0.23058 0.32369 1.16300
Zn	Zn	0.26695 0.74075 0.16947 1.16100
Zn	Zn	0.27811 0.73058 0.82369 1.16300
Zn	Zn	0.23305 0.24075 0.66947 1.16100
Zn	Zn	0.77811 0.76942 0.67631 1.16400
Zn	Zn	0.73305 0.25925 0.83053 1.16200
H 	H 	0.96420 0.55970 0.27040 0.18600
H 	H 	0.94400 0.45310 0.19670 0.18500
H 	H 	0.95250 0.45480 0.28640 0.19200
H 	H 	0.49240 0.36720 0.38570 0.16900
H 	H 	0.62540 0.32220 0.35040 0.17900
H 	H 	0.53110 0.25360 0.37840 0.17300
H 	H 	0.94550 0.73560 0.13200 0.18800
H 	H 	0.87330 0.65120 0.15620 0.18500
H 	H 	0.00830 0.62630 0.11670 0.17600
H 	H 	0.67150 0.08440 0.94390 0.18400
H 	H 	0.56980 0.15700 0.92660 0.18100
H 	H 	0.57640 0.14780 0.01300 0.17500
H 	H 	0.46420 0.94030 0.22960 0.18300
H 	H 	0.44400 0.04690 0.30330 0.18300
H 	H 	0.45250 0.04520 0.21360 0.19000
H 	H 	0.99240 0.13280 0.11430 0.16400
H 	H 	0.12540 0.17780 0.14960 0.17500
H 	H 	0.03110 0.24640 0.12160 0.17000
H 	H 	0.44550 0.76440 0.36800 0.19000
H 	H 	0.37330 0.84880 0.34380 0.18700
H 	H 	0.50830 0.87370 0.38330 0.17900
H 	H 	0.17150 0.41560 0.55610 0.18400
H 	H 	0.06980 0.34300 0.57340 0.18100
H 	H 	0.07640 0.35220 0.48700 0.17500
H 	H 	0.03580 0.44030 0.72960 0.18600
H 	H 	0.05600 0.54690 0.80330 0.18500
H 	H 	0.04750 0.54520 0.71360 0.19200
H 	H 	0.50760 0.63280 0.61430 0.16900
H 	H 	0.37460 0.67780 0.64960 0.17900
H 	H 	0.46890 0.74640 0.62160 0.17300
H 	H 	0.05450 0.26440 0.86800 0.18800
H 	H 	0.12670 0.34880 0.84380 0.18500
H 	H 	0.99170 0.37370 0.88330 0.17600
H 	H 	0.32850 0.91560 0.05610 0.18400
H 	H 	0.43020 0.84300 0.07340 0.18100
H 	H 	0.42360 0.85220 0.98700 0.17500
H 	H 	0.53580 0.05970 0.77040 0.18300
H 	H 	0.55600 0.95310 0.69670 0.18300
H 	H 	0.54750 0.95480 0.78640 0.19000
H 	H 	0.00760 0.86720 0.88570 0.16400
H 	H 	0.87460 0.82220 0.85040 0.17500
H 	H 	0.96890 0.75360 0.87840 0.17000
H 	H 	0.55450 0.23560 0.63200 0.19000
H 	H 	0.62670 0.15120 0.65620 0.18700
H 	H 	0.49170 0.12630 0.61670 0.17900
H 	H 	0.82850 0.58440 0.44390 0.18400
H 	H 	0.93020 0.65700 0.42660 0.18100
H 	H 	0.92360 0.64780 0.51300 0.17500
C 	C 	0.78656 0.50673 0.26177 0.25200
C 	C 	0.92358 0.49236 0.25308 -0.64100
C 	C 	0.48459 0.26272 0.27104 0.23500
C 	C 	0.53791 0.30505 0.35342 -0.62300
C 	C 	0.01163 0.72201 0.23381 0.23500
C 	C 	0.95488 0.68023 0.15280 -0.64300
C 	C 	0.71381 0.23679 0.99489 0.24200
C 	C 	0.62533 0.14898 0.96724 -0.63700
C 	C 	0.28656 0.99327 0.23823 0.24700
C 	C 	0.42358 0.00764 0.24692 -0.63200
C 	C 	0.98459 0.23728 0.22896 0.22800
C 	C 	0.03791 0.19495 0.14658 -0.60800
C 	C 	0.51163 0.77799 0.26619 0.23900
C 	C 	0.45488 0.81977 0.34720 -0.65100
C 	C 	0.21381 0.26321 0.50511 0.24300
C 	C 	0.12533 0.35102 0.53276 -0.63600
C 	C 	0.21344 0.49327 0.73823 0.25200
C 	C 	0.07642 0.50764 0.74692 -0.64100
C 	C 	0.51541 0.73728 0.72896 0.23500
C 	C 	0.46209 0.69495 0.64658 -0.62300
C 	C 	0.98837 0.27799 0.76619 0.23500
C 	C 	0.04512 0.31977 0.84720 -0.64300
C 	C 	0.28619 0.76321 0.00511 0.24200
C 	C 	0.37467 0.85102 0.03276 -0.63700
C 	C 	0.71344 0.00673 0.76177 0.24700
C 	C 	0.57642 0.99236 0.75308 -0.63200
C 	C 	0.01541 0.76272 0.77104 0.22800
C 	C 	0.96209 0.80505 0.85342 -0.60800
C 	C 	0.48837 0.22201 0.73381 0.23900
C 	C 	0.54512 0.18023 0.65280 -0.65100
C 	C 	0.78619 0.73679 0.49489 0.24300
C 	C 	0.87467 0.64898 0.46724 -0.63600
N 	N 	0.72871 0.59715 0.29365 -0.25500
N 	N 	0.60592 0.57468 0.29386 -0.08400
N 	N 	0.59125 0.47538 0.26293 -0.07600
N 	N 	0.70379 0.42985 0.24166 -0.25500
N 	N 	0.54799 0.23904 0.20241 -0.28700
N 	N 	0.46388 0.20212 0.14189 -0.09500
N 	N 	0.35474 0.20283 0.17287 -0.08800
N 	N 	0.36536 0.24068 0.25424 -0.28900
N 	N 	0.94981 0.75110 0.30302 -0.28900
N 	N 	0.03620 0.78449 0.36218 -0.08800
N 	N 	0.14553 0.77547 0.32935 -0.08200
N 	N 	0.13265 0.73603 0.24828 -0.28300
N 	N 	0.75596 0.28268 0.06971 -0.28800
N 	N 	0.83424 0.35850 0.06842 -0.08900
N 	N 	0.83857 0.35863 0.99613 -0.09000
N 	N 	0.76297 0.28270 0.94817 -0.28200
N 	N 	0.22871 0.90285 0.20635 -0.25400
N 	N 	0.10592 0.92532 0.20614 -0.08500
N 	N 	0.09125 0.02462 0.23707 -0.07400
N 	N 	0.20379 0.07015 0.25834 -0.25300
N 	N 	0.04799 0.26096 0.29759 -0.28500
N 	N 	0.96388 0.29788 0.35811 -0.09600
N 	N 	0.85474 0.29717 0.32713 -0.08900
N 	N 	0.86536 0.25932 0.24576 -0.28800
N 	N 	0.44981 0.74890 0.19698 -0.29100
N 	N 	0.53620 0.71551 0.13782 -0.08700
N 	N 	0.64553 0.72453 0.17065 -0.08100
N 	N 	0.63265 0.76397 0.25172 -0.28300
N 	N 	0.25596 0.21732 0.43029 -0.28800
N 	N 	0.33424 0.14150 0.43158 -0.08800
N 	N 	0.33857 0.14137 0.50387 -0.08900
N 	N 	0.26297 0.21730 0.55183 -0.28200
N 	N 	0.27129 0.40285 0.70635 -0.25500
N 	N 	0.39408 0.42532 0.70614 -0.08400
N 	N 	0.40875 0.52462 0.73707 -0.07600
N 	N 	0.29621 0.57015 0.75834 -0.25500
N 	N 	0.45201 0.76096 0.79759 -0.28700
N 	N 	0.53612 0.79788 0.85811 -0.09500
N 	N 	0.64526 0.79717 0.82713 -0.08800
N 	N 	0.63464 0.75932 0.74576 -0.28900
N 	N 	0.05019 0.24890 0.69698 -0.28900
N 	N 	0.96380 0.21551 0.63782 -0.08800
N 	N 	0.85447 0.22453 0.67065 -0.08200
N 	N 	0.86735 0.26397 0.75172 -0.28300
N 	N 	0.24404 0.71732 0.93029 -0.28800
N 	N 	0.16576 0.64150 0.93158 -0.08900
N 	N 	0.16143 0.64137 0.00387 -0.09000
N 	N 	0.23703 0.71730 0.05183 -0.28200
N 	N 	0.77129 0.09715 0.79365 -0.25400
N 	N 	0.89408 0.07468 0.79386 -0.08500
N 	N 	0.90875 0.97538 0.76293 -0.07400
N 	N 	0.79621 0.92985 0.74166 -0.25300
N 	N 	0.95201 0.73904 0.70241 -0.28500
N 	N 	0.03612 0.70212 0.64189 -0.09600
N 	N 	0.14526 0.70283 0.67287 -0.08900
N 	N 	0.13464 0.74068 0.75424 -0.28800
N 	N 	0.55019 0.25110 0.80302 -0.29100
N 	N 	0.46380 0.28449 0.86218 -0.08700
N 	N 	0.35447 0.27547 0.82935 -0.08100
N 	N 	0.36735 0.23603 0.74828 -0.28300
N 	N 	0.74404 0.78268 0.56971 -0.28800
N 	N 	0.66576 0.85850 0.56842 -0.08800
N 	N 	0.66143 0.85863 0.49613 -0.08900
N 	N 	0.73703 0.78270 0.44817 -0.28200
