data_crystal

_cell_length_a 9.92610
_cell_length_b 9.92610
_cell_length_c 18.28730
_cell_angle_alpha 95.77690
_cell_angle_beta  103.31300
_cell_angle_gamma 112.97400

_symmetry_space_group_name_	'P 1'
_symmetry_space_group_name_H-M	'P 1'

loop_
_symmetry_equiv_pos_as_xyz
  x,y,z

loop_
_atom_site_label
_atom_site_type_symbol
_atom_site_fract_x
_atom_site_fract_y
_atom_site_fract_z
_atom_site_charge
Ca	Ca	0.79008 0.45028 0.04872 1.50100
Ca	Ca	0.90156 0.74136 0.45128 1.50100
Ca	Ca	0.20992 0.54972 0.95128 1.50100
Ca	Ca	0.09844 0.25864 0.54872 1.50100
Ca	Ca	0.70626 0.45626 0.25000 1.48700
Ca	Ca	0.29374 0.54374 0.75000 1.48700
H 	H 	0.88560 0.81980 0.27520 -0.03000
H 	H 	0.75880 0.94920 0.08000 -0.01000
H 	H 	0.91100 0.23560 0.28360 -0.03700
H 	H 	0.04460 0.61040 0.22480 -0.02800
H 	H 	0.36920 0.67880 0.42000 -0.00800
H 	H 	0.45200 0.62740 0.21640 -0.03500
H 	H 	0.11440 0.18020 0.72480 -0.03000
H 	H 	0.24120 0.05080 0.92000 -0.01000
H 	H 	0.08900 0.76440 0.71640 -0.03700
H 	H 	0.95540 0.38960 0.77520 -0.02800
H 	H 	0.63080 0.32120 0.58000 -0.00800
H 	H 	0.54800 0.37260 0.78360 -0.03500
C 	C 	0.87237 0.89290 0.25027 0.13600
C 	C 	0.81457 0.86100 0.17077 -0.21000
C 	C 	0.83023 0.11064 0.17587 -0.22400
C 	C 	0.77870 0.70900 0.12630 0.39500
C 	C 	0.79523 0.96994 0.13337 0.13100
C 	C 	0.80822 0.22700 0.13462 0.39900
C 	C 	0.97246 0.06490 0.37936 0.43400
C 	C 	0.88765 0.14200 0.25525 0.13100
C 	C 	0.91073 0.03400 0.29293 -0.22100
C 	C 	0.14263 0.62210 0.24973 0.13000
C 	C 	0.19023 0.64380 0.32923 -0.20600
C 	C 	0.43477 0.65436 0.32413 -0.21800
C 	C 	0.08270 0.65240 0.37370 0.39400
C 	C 	0.33657 0.66186 0.36663 0.12500
C 	C 	0.59238 0.67360 0.36538 0.39700
C 	C 	0.18554 0.59310 0.12064 0.43700
C 	C 	0.38675 0.63240 0.24475 0.12800
C 	C 	0.24107 0.61780 0.20707 -0.21600
C 	C 	0.12763 0.10710 0.74973 0.13600
C 	C 	0.18543 0.13900 0.82923 -0.21000
C 	C 	0.16977 0.88936 0.82413 -0.22400
C 	C 	0.22130 0.29100 0.87370 0.39500
C 	C 	0.20477 0.03006 0.86663 0.13100
C 	C 	0.19178 0.77300 0.86538 0.39900
C 	C 	0.02754 0.93510 0.62064 0.43400
C 	C 	0.11235 0.85800 0.74475 0.13100
C 	C 	0.08927 0.96600 0.70707 -0.22100
C 	C 	0.85737 0.37790 0.75027 0.13000
C 	C 	0.80977 0.35620 0.67077 -0.20600
C 	C 	0.56523 0.34564 0.67587 -0.21800
C 	C 	0.91730 0.34760 0.62630 0.39400
C 	C 	0.66343 0.33814 0.63337 0.12500
C 	C 	0.40762 0.32640 0.63462 0.39700
C 	C 	0.81446 0.40690 0.87936 0.43700
C 	C 	0.61325 0.36760 0.75525 0.12800
C 	C 	0.75893 0.38220 0.79293 -0.21600
O 	O 	0.76788 0.60440 0.16148 -0.60200
O 	O 	0.76384 0.69099 0.05503 -0.45000
O 	O 	0.79539 0.33433 0.17152 -0.60700
O 	O 	0.80390 0.21643 0.06533 -0.45900
O 	O 	0.01196 0.19540 0.41576 -0.50500
O 	O 	0.98177 0.95961 0.40978 -0.51900
O 	O 	0.94292 0.60640 0.33852 -0.60200
O 	O 	0.13596 0.70881 0.44497 -0.45000
O 	O 	0.66281 0.62387 0.32848 -0.60600
O 	O 	0.65110 0.73857 0.43467 -0.45700
O 	O 	0.27964 0.59620 0.08424 -0.50600
O 	O 	0.04983 0.57199 0.09022 -0.52000
O 	O 	0.23212 0.39560 0.83852 -0.60200
O 	O 	0.23616 0.30901 0.94497 -0.45000
O 	O 	0.20461 0.66567 0.82848 -0.60700
O 	O 	0.19610 0.78357 0.93467 -0.45900
O 	O 	0.98804 0.80460 0.58424 -0.50500
O 	O 	0.01823 0.04039 0.59022 -0.51900
O 	O 	0.05708 0.39360 0.66148 -0.60200
O 	O 	0.86404 0.29119 0.55503 -0.45000
O 	O 	0.33719 0.37613 0.67152 -0.60600
O 	O 	0.34890 0.26143 0.56533 -0.45700
O 	O 	0.72036 0.40380 0.91576 -0.50600
O 	O 	0.95017 0.42801 0.90978 -0.52000
