data_crystal

_cell_length_a 9.16630
_cell_length_b 10.34960
_cell_length_c 18.22660
_cell_angle_alpha 90.00000
_cell_angle_beta  90.00000
_cell_angle_gamma 90.00000

_symmetry_space_group_name_	'P 1'
_symmetry_space_group_name_H-M	'P 1'

loop_
_symmetry_equiv_pos_as_xyz
  x,y,z

loop_
_atom_site_label
_atom_site_type_symbol
_atom_site_fract_x
_atom_site_fract_y
_atom_site_fract_z
_atom_site_charge
Zn	Zn	0.87822 0.52837 0.09975 1.18400
Zn	Zn	0.37822 0.47163 0.90025 1.19300
Zn	Zn	0.87822 0.97163 0.59975 1.18400
Zn	Zn	0.37822 0.02837 0.40025 1.19100
H 	H 	0.46200 0.13950 0.11600 0.00100
H 	H 	0.96200 0.86050 0.88400 -0.01400
H 	H 	0.46200 0.36050 0.61600 0.00100
H 	H 	0.96200 0.63950 0.38400 -0.01500
H 	H 	0.08150 0.55060 0.97350 -0.01900
H 	H 	0.58150 0.44940 0.02650 -0.03400
H 	H 	0.08150 0.94940 0.47350 -0.01300
H 	H 	0.58150 0.05060 0.52650 -0.03900
H 	H 	0.93490 0.96380 0.21840 0.12200
H 	H 	0.43490 0.03620 0.78160 0.09400
H 	H 	0.93490 0.53620 0.71840 0.12000
H 	H 	0.43490 0.46380 0.28160 0.09500
H 	H 	0.22250 0.69470 0.28090 0.10900
H 	H 	0.72250 0.30530 0.71910 0.07000
H 	H 	0.22250 0.80530 0.78090 0.10900
H 	H 	0.72250 0.19470 0.21910 0.06900
H 	H 	0.10400 0.55070 0.20670 -0.04800
H 	H 	0.60400 0.44930 0.79330 -0.02500
H 	H 	0.10400 0.94930 0.70670 -0.04600
H 	H 	0.60400 0.05070 0.29330 -0.02600
H 	H 	0.06030 0.20500 0.23640 0.17800
H 	H 	0.56030 0.79500 0.76360 0.17900
H 	H 	0.06030 0.29500 0.73640 0.17800
H 	H 	0.56030 0.70500 0.26360 0.17900
H 	H 	0.97720 0.30690 0.19660 0.10200
H 	H 	0.47720 0.69310 0.80340 0.15400
H 	H 	0.97720 0.19310 0.69660 0.10200
H 	H 	0.47720 0.80690 0.30340 0.15500
H 	H 	0.74800 0.89280 0.13560 0.15400
H 	H 	0.24800 0.10720 0.86440 0.15900
H 	H 	0.74800 0.60720 0.63560 0.15200
H 	H 	0.24800 0.39280 0.36440 0.16000
H 	H 	0.74610 0.75880 0.10580 0.12200
H 	H 	0.24610 0.24120 0.89420 0.12500
H 	H 	0.74610 0.74120 0.60580 0.12100
H 	H 	0.24610 0.25880 0.39420 0.12600
C 	C 	0.27580 0.34500 0.04190 0.11500
C 	C 	0.77580 0.65500 0.95810 0.10900
C 	C 	0.27580 0.15500 0.54190 0.11500
C 	C 	0.77580 0.84500 0.45810 0.10900
C 	C 	0.16010 0.35150 0.08920 -0.03500
C 	C 	0.66010 0.64850 0.91080 -0.04700
C 	C 	0.16010 0.14850 0.58920 -0.03500
C 	C 	0.66010 0.85150 0.41080 -0.04700
C 	C 	0.15930 0.26710 0.15150 0.14900
C 	C 	0.65930 0.73290 0.84850 0.14800
C 	C 	0.15930 0.23290 0.65150 0.14900
C 	C 	0.65930 0.76710 0.34850 0.14800
C 	C 	0.38410 0.19560 0.10860 0.10900
C 	C 	0.88410 0.80440 0.89140 0.10200
C 	C 	0.38410 0.30440 0.60860 0.10900
C 	C 	0.88410 0.69560 0.39140 0.10200
C 	C 	0.12310 0.48610 0.00230 0.08300
C 	C 	0.62310 0.51390 0.99770 0.07700
C 	C 	0.12310 0.01390 0.50230 0.07400
C 	C 	0.62310 0.98610 0.49770 0.08500
C 	C 	0.90350 0.78920 0.17120 0.23300
C 	C 	0.40350 0.21080 0.82880 0.20000
C 	C 	0.90350 0.71080 0.67120 0.23200
C 	C 	0.40350 0.28920 0.32880 0.20000
C 	C 	0.97110 0.87990 0.21620 -0.29300
C 	C 	0.47110 0.12010 0.78380 -0.16900
C 	C 	0.97110 0.62010 0.71620 -0.29300
C 	C 	0.47110 0.37990 0.28380 -0.16800
C 	C 	0.09040 0.84660 0.25740 0.13700
C 	C 	0.59040 0.15340 0.74260 0.01700
C 	C 	0.09040 0.65340 0.75740 0.13700
C 	C 	0.59040 0.34660 0.24260 0.01600
C 	C 	0.14200 0.72060 0.25360 -0.19600
C 	C 	0.64200 0.27940 0.74640 -0.11300
C 	C 	0.14200 0.77940 0.75360 -0.19600
C 	C 	0.64200 0.22060 0.24640 -0.11200
C 	C 	0.07090 0.63550 0.20850 0.17900
C 	C 	0.57090 0.36450 0.79150 0.06700
C 	C 	0.07090 0.86450 0.70850 0.17800
C 	C 	0.57090 0.13550 0.29150 0.06700
C 	C 	0.16160 0.94230 0.30730 0.26000
C 	C 	0.66160 0.05770 0.69270 0.28300
C 	C 	0.16160 0.55770 0.80730 0.25400
C 	C 	0.66160 0.44230 0.19270 0.28900
N 	N 	0.25310 0.42950 0.98570 -0.29200
N 	N 	0.75310 0.57050 0.01430 -0.29800
N 	N 	0.25310 0.07050 0.48570 -0.29000
N 	N 	0.75310 0.92950 0.51430 -0.29800
N 	N 	0.06080 0.44150 0.06290 -0.24600
N 	N 	0.56080 0.55850 0.93710 -0.26100
N 	N 	0.06080 0.05850 0.56290 -0.24500
N 	N 	0.56080 0.94150 0.43710 -0.26100
N 	N 	0.39430 0.26880 0.05020 -0.17100
N 	N 	0.89430 0.73120 0.94980 -0.18200
N 	N 	0.39430 0.23120 0.55020 -0.17100
N 	N 	0.89430 0.76880 0.44980 -0.18200
N 	N 	0.27930 0.18950 0.15880 -0.14800
N 	N 	0.77930 0.81050 0.84120 -0.15400
N 	N 	0.27930 0.31050 0.65880 -0.14700
N 	N 	0.77930 0.68950 0.34120 -0.15500
N 	N 	0.05320 0.25870 0.20060 -0.28000
N 	N 	0.55320 0.74130 0.79940 -0.33100
N 	N 	0.05320 0.24130 0.70060 -0.28000
N 	N 	0.55320 0.75870 0.29940 -0.33100
N 	N 	0.95630 0.66770 0.16680 -0.34500
N 	N 	0.45630 0.33230 0.83320 -0.29500
N 	N 	0.95630 0.83230 0.66680 -0.34300
N 	N 	0.45630 0.16770 0.33320 -0.29500
N 	N 	0.78560 0.81680 0.13320 -0.34500
N 	N 	0.28560 0.18320 0.86680 -0.33700
N 	N 	0.78560 0.68320 0.63320 -0.34500
N 	N 	0.28560 0.31680 0.36680 -0.33700
O 	O 	0.11000 0.04980 0.31860 -0.29800
O 	O 	0.61000 0.95020 0.68140 -0.31600
O 	O 	0.11000 0.45020 0.81860 -0.29400
O 	O 	0.61000 0.54980 0.18140 -0.32000
O 	O 	0.28340 0.90270 0.33672 -0.45100
O 	O 	0.78340 0.09730 0.66328 -0.47100
O 	O 	0.28340 0.59730 0.83672 -0.45100
O 	O 	0.78340 0.40270 0.16328 -0.47100
