data_crystal

_cell_length_a 9.77440
_cell_length_b 11.20650
_cell_length_c 14.72010
_cell_angle_alpha 91.05980
_cell_angle_beta  90.00000
_cell_angle_gamma 90.00000

_symmetry_space_group_name_	'P 1'
_symmetry_space_group_name_H-M	'P 1'

loop_
_symmetry_equiv_pos_as_xyz
  x,y,z

loop_
_atom_site_label
_atom_site_type_symbol
_atom_site_fract_x
_atom_site_fract_y
_atom_site_fract_z
_atom_site_charge
Zn	Zn	0.92099 0.75574 0.13235 1.28400
Zn	Zn	0.10828 0.73768 0.31052 1.23800
Zn	Zn	0.42099 0.74426 0.36765 1.24800
Zn	Zn	0.60828 0.76232 0.18948 1.25300
Zn	Zn	0.07901 0.24426 0.86765 1.20700
Zn	Zn	0.89172 0.26232 0.68948 1.26400
Zn	Zn	0.57901 0.25574 0.63235 1.24200
Zn	Zn	0.39172 0.23768 0.81052 1.24800
Zn	Zn	-0.00000 0.50000 -0.00000 1.18100
Zn	Zn	0.50000 0.00000 0.50000 1.23200
Zn	Zn	-0.00000 0.00000 -0.00000 1.15700
Zn	Zn	0.50000 0.50000 0.50000 1.25500
H 	H 	0.75750 0.86650 0.36470 -0.08000
H 	H 	0.03890 0.47060 0.26260 -0.13700
H 	H 	0.61530 0.55590 0.04780 -0.13000
H 	H 	0.19780 0.97980 0.22700 -0.15000
H 	H 	0.16240 0.69520 0.93110 -0.15100
H 	H 	0.70100 0.98850 0.00790 -0.09600
H 	H 	0.25750 0.63350 0.13530 -0.13200
H 	H 	0.53890 0.02940 0.23740 -0.25100
H 	H 	0.11530 0.94410 0.45220 -0.10900
H 	H 	0.69780 0.52020 0.27300 -0.09700
H 	H 	0.66240 0.80480 0.56890 -0.07300
H 	H 	0.20100 0.51150 0.49210 -0.11200
H 	H 	0.24250 0.13350 0.63530 -0.13100
H 	H 	0.96110 0.52940 0.73740 -0.05800
H 	H 	0.38470 0.44410 0.95220 -0.05700
H 	H 	0.80220 0.02020 0.77300 -0.07100
H 	H 	0.83760 0.30480 0.06890 -0.03300
H 	H 	0.29900 0.01150 0.99210 -0.07500
H 	H 	0.74250 0.36650 0.86470 -0.07700
H 	H 	0.46110 0.97060 0.76260 0.05600
H 	H 	0.88470 0.05590 0.54780 -0.07800
H 	H 	0.30220 0.47980 0.72700 -0.12700
H 	H 	0.33760 0.19520 0.43110 -0.12100
H 	H 	0.79900 0.48850 0.50790 -0.06600
C 	C 	0.82870 0.83330 0.32830 0.48100
C 	C 	0.01800 0.51380 0.20940 0.52200
C 	C 	0.71010 0.57270 0.05450 0.51200
C 	C 	0.13380 0.95270 0.18270 0.64300
C 	C 	0.10610 0.74200 0.97050 0.68600
C 	C 	0.71920 0.93010 0.05230 0.47200
C 	C 	0.32870 0.66670 0.17170 0.49800
C 	C 	0.51800 0.98620 0.29060 0.78700
C 	C 	0.21010 0.92730 0.44550 0.49100
C 	C 	0.63380 0.54730 0.31730 0.49700
C 	C 	0.60610 0.75800 0.52950 0.49000
C 	C 	0.21920 0.56990 0.44770 0.49200
C 	C 	0.17130 0.16670 0.67170 0.50100
C 	C 	0.98200 0.48620 0.79060 0.46600
C 	C 	0.28990 0.42730 0.94550 0.46900
C 	C 	0.86620 0.04730 0.81730 0.35800
C 	C 	0.89390 0.25800 0.02950 0.29500
C 	C 	0.28080 0.06990 0.94770 0.48000
C 	C 	0.67130 0.33330 0.82830 0.48300
C 	C 	0.48200 0.01380 0.70940 0.20400
C 	C 	0.78990 0.07270 0.55450 0.49500
C 	C 	0.36620 0.45270 0.68270 0.50800
C 	C 	0.39390 0.24200 0.47050 0.51100
C 	C 	0.78080 0.43010 0.55230 0.46900
O 	O 	0.80100 0.81216 0.24520 -0.53400
O 	O 	0.94017 0.81490 0.36670 -0.36300
O 	O 	0.00515 0.62662 0.21830 -0.63100
O 	O 	0.00571 0.45544 0.13754 -0.52500
O 	O 	0.74300 0.65239 0.11424 -0.56400
O 	O 	0.78892 0.51565 0.00495 -0.47200
O 	O 	0.08479 0.84842 0.19325 -0.64800
O 	O 	0.10713 0.02202 0.12102 -0.61400
O 	O 	0.02672 0.68498 0.02416 -0.75700
O 	O 	0.11646 0.85063 0.96514 -0.44800
O 	O 	0.84434 0.89723 0.06095 -0.53600
O 	O 	0.61969 0.89336 0.09599 -0.44100
O 	O 	0.30100 0.68784 0.25480 -0.57600
O 	O 	0.44017 0.68510 0.13330 -0.47100
O 	O 	0.50515 0.87338 0.28170 -0.63800
O 	O 	0.50571 0.04456 0.36246 -0.57300
O 	O 	0.24300 0.84761 0.38576 -0.57800
O 	O 	0.28892 0.98435 0.49505 -0.40700
O 	O 	0.58479 0.65158 0.30675 -0.56600
O 	O 	0.60713 0.47798 0.37898 -0.44000
O 	O 	0.52672 0.81502 0.47584 -0.56100
O 	O 	0.61646 0.64937 0.53486 -0.43900
O 	O 	0.34434 0.60277 0.43905 -0.58300
O 	O 	0.11969 0.60664 0.40401 -0.48400
O 	O 	0.19900 0.18784 0.75480 -0.61100
O 	O 	0.05983 0.18510 0.63330 -0.53600
O 	O 	0.99485 0.37338 0.78170 -0.51300
O 	O 	0.99429 0.54456 0.86246 -0.32800
O 	O 	0.25700 0.34761 0.88576 -0.58100
O 	O 	0.21108 0.48435 0.99505 -0.38700
O 	O 	0.91521 0.15158 0.80675 -0.49100
O 	O 	0.89287 0.97798 0.87898 -0.25100
O 	O 	0.97328 0.31502 0.97584 -0.37100
O 	O 	0.88354 0.14937 0.03486 -0.41600
O 	O 	0.15566 0.10277 0.93905 -0.58600
O 	O 	0.38031 0.10664 0.90401 -0.44700
O 	O 	0.69900 0.31216 0.74520 -0.56800
O 	O 	0.55983 0.31490 0.86670 -0.42400
O 	O 	0.49485 0.12662 0.71830 -0.50900
O 	O 	0.49429 0.95544 0.63754 -0.29600
O 	O 	0.75700 0.15239 0.61424 -0.56900
O 	O 	0.71108 0.01565 0.50495 -0.46800
O 	O 	0.41521 0.34842 0.69325 -0.58000
O 	O 	0.39287 0.52202 0.62102 -0.45200
O 	O 	0.47328 0.18498 0.52416 -0.59100
O 	O 	0.38354 0.35063 0.46514 -0.46400
O 	O 	0.65566 0.39723 0.56095 -0.56800
O 	O 	0.88031 0.39336 0.59599 -0.40700
