data_crystal

_cell_length_a 9.84860
_cell_length_b 11.29560
_cell_length_c 14.74930
_cell_angle_alpha 91.30940
_cell_angle_beta  90.00000
_cell_angle_gamma 90.00000

_symmetry_space_group_name_	'P 1'
_symmetry_space_group_name_H-M	'P 1'

loop_
_symmetry_equiv_pos_as_xyz
  x,y,z

loop_
_atom_site_label
_atom_site_type_symbol
_atom_site_fract_x
_atom_site_fract_y
_atom_site_fract_z
_atom_site_charge
Zn	Zn	0.92332 0.75686 0.13235 1.28300
Zn	Zn	0.11240 0.74124 0.30876 1.23600
Zn	Zn	0.42332 0.74314 0.36765 1.24600
Zn	Zn	0.61240 0.75876 0.19124 1.25200
Zn	Zn	0.07668 0.24314 0.86765 1.20400
Zn	Zn	0.88760 0.25876 0.69124 1.26400
Zn	Zn	0.57668 0.25686 0.63235 1.24300
Zn	Zn	0.38760 0.24124 0.80876 1.24800
Zn	Zn	-0.00000 0.50000 -0.00000 1.18100
Zn	Zn	0.50000 -0.00000 0.50000 1.23500
Zn	Zn	-0.00000 0.00000 -0.00000 1.16200
Zn	Zn	0.50000 0.50000 0.50000 1.25600
H 	H 	0.75760 0.84540 0.36980 -0.08600
H 	H 	0.05570 0.47750 0.25890 -0.13900
H 	H 	0.61730 0.55340 0.05160 -0.12900
H 	H 	0.19890 0.98130 0.22610 -0.15200
H 	H 	0.15420 0.69530 0.92730 -0.15400
H 	H 	0.70740 0.00370 0.02510 -0.20000
H 	H 	0.25760 0.65460 0.13020 -0.13300
H 	H 	0.55570 0.02250 0.24110 -0.22900
H 	H 	0.11730 0.94660 0.44840 -0.11400
H 	H 	0.69890 0.51870 0.27390 -0.10100
H 	H 	0.65420 0.80470 0.57270 -0.07600
H 	H 	0.20740 0.49630 0.47490 -0.11200
H 	H 	0.24240 0.15460 0.63020 -0.12900
H 	H 	0.94430 0.52250 0.74110 -0.06400
H 	H 	0.38270 0.44660 0.94840 -0.06200
H 	H 	0.80110 0.01870 0.77390 -0.07700
H 	H 	0.84580 0.30470 0.07270 -0.03000
H 	H 	0.29260 0.99630 0.97490 0.03700
H 	H 	0.74240 0.34540 0.86980 -0.08000
H 	H 	0.44430 0.97750 0.75890 0.02900
H 	H 	0.88270 0.05340 0.55160 -0.07600
H 	H 	0.30110 0.48130 0.72610 -0.13000
H 	H 	0.34580 0.19530 0.42730 -0.11800
H 	H 	0.79260 0.50370 0.52510 -0.06800
C 	C 	0.83040 0.82037 0.33177 0.47900
C 	C 	0.02850 0.51835 0.20635 0.53700
C 	C 	0.71120 0.57176 0.05606 0.50500
C 	C 	0.13640 0.95338 0.18148 0.63200
C 	C 	0.09930 0.74174 0.96734 0.68500
C 	C 	0.72450 0.93805 0.06255 0.60000
C 	C 	0.33040 0.67963 0.16823 0.49400
C 	C 	0.52850 0.98165 0.29365 0.75700
C 	C 	0.21120 0.92824 0.44394 0.48800
C 	C 	0.63640 0.54662 0.31852 0.50300
C 	C 	0.59930 0.75826 0.53266 0.49100
C 	C 	0.22450 0.56195 0.43745 0.49300
C 	C 	0.16960 0.17963 0.66823 0.49700
C 	C 	0.97150 0.48165 0.79365 0.48000
C 	C 	0.28880 0.42824 0.94394 0.46600
C 	C 	0.86360 0.04662 0.81852 0.38200
C 	C 	0.90070 0.25826 0.03266 0.29700
C 	C 	0.27550 0.06195 0.93745 0.34500
C 	C 	0.66960 0.32037 0.83177 0.48100
C 	C 	0.47150 0.01835 0.70635 0.26000
C 	C 	0.78880 0.07176 0.55606 0.48900
C 	C 	0.36360 0.45338 0.68148 0.51500
C 	C 	0.40070 0.24174 0.46734 0.50900
C 	C 	0.77550 0.43805 0.56255 0.47300
O 	O 	0.80387 0.80437 0.24775 -0.53300
O 	O 	0.94288 0.80628 0.36872 -0.36400
O 	O 	0.01248 0.62906 0.21531 -0.63600
O 	O 	0.01243 0.45779 0.13632 -0.53300
O 	O 	0.74534 0.65521 0.11206 -0.56400
O 	O 	0.78977 0.51304 0.00724 -0.46300
O 	O 	0.08282 0.85242 0.19456 -0.65000
O 	O 	0.11556 0.01833 0.11700 -0.60500
O 	O 	0.02452 0.68519 0.02327 -0.75200
O 	O 	0.10695 0.84949 0.96044 -0.46400
O 	O 	0.84735 0.90123 0.06596 -0.56700
O 	O 	0.62565 0.89667 0.10323 -0.47000
O 	O 	0.30387 0.69563 0.25225 -0.57300
O 	O 	0.44288 0.69372 0.13128 -0.47100
O 	O 	0.51248 0.87094 0.28469 -0.63500
O 	O 	0.51243 0.04221 0.36368 -0.55900
O 	O 	0.24534 0.84479 0.38794 -0.58000
O 	O 	0.28977 0.98696 0.49276 -0.40900
O 	O 	0.58282 0.64758 0.30544 -0.57200
O 	O 	0.61556 0.48167 0.38300 -0.44100
O 	O 	0.52452 0.81481 0.47673 -0.56100
O 	O 	0.60695 0.65051 0.53956 -0.44200
O 	O 	0.34735 0.59877 0.43404 -0.58200
O 	O 	0.12565 0.60333 0.39677 -0.47800
O 	O 	0.19613 0.19563 0.75225 -0.60700
O 	O 	0.05712 0.19372 0.63128 -0.53400
O 	O 	0.98752 0.37094 0.78469 -0.51700
O 	O 	0.98757 0.54221 0.86368 -0.33600
O 	O 	0.25466 0.34479 0.88794 -0.58000
O 	O 	0.21023 0.48696 0.99276 -0.38500
O 	O 	0.91718 0.14758 0.80544 -0.49800
O 	O 	0.88444 0.98167 0.88300 -0.26500
O 	O 	0.97548 0.31481 0.97673 -0.37200
O 	O 	0.89305 0.15051 0.03956 -0.40300
O 	O 	0.15265 0.09877 0.93404 -0.55300
O 	O 	0.37435 0.10333 0.89677 -0.40500
O 	O 	0.69613 0.30437 0.74775 -0.56500
O 	O 	0.55712 0.30628 0.86872 -0.42400
O 	O 	0.48752 0.12906 0.71531 -0.52300
O 	O 	0.48757 0.95779 0.63632 -0.32500
O 	O 	0.75466 0.15521 0.61206 -0.56600
O 	O 	0.71023 0.01304 0.50724 -0.45500
O 	O 	0.41718 0.35242 0.69456 -0.58300
O 	O 	0.38444 0.51833 0.61700 -0.45600
O 	O 	0.47548 0.18519 0.52327 -0.58600
O 	O 	0.39305 0.34949 0.46044 -0.46400
O 	O 	0.65265 0.40123 0.56596 -0.56700
O 	O 	0.87435 0.39667 0.60323 -0.40200
