data_crystal

_cell_length_a 9.58660
_cell_length_b 9.58660
_cell_length_c 11.07200
_cell_angle_alpha 91.18710
_cell_angle_beta  91.18710
_cell_angle_gamma 105.87800

_symmetry_space_group_name_	'P 1'
_symmetry_space_group_name_H-M	'P 1'

loop_
_symmetry_equiv_pos_as_xyz
  x,y,z

loop_
_atom_site_label
_atom_site_type_symbol
_atom_site_fract_x
_atom_site_fract_y
_atom_site_fract_z
_atom_site_charge
Zn	Zn	0.99495 0.00505 0.75000 1.23000
Zn	Zn	0.00505 0.99495 0.25000 1.23000
H 	H 	0.44600 0.95000 0.78800 0.05400
H 	H 	0.05000 0.55400 0.71200 0.05400
H 	H 	0.55400 0.05000 0.21200 0.05400
H 	H 	0.95000 0.44600 0.28800 0.05400
H 	H 	0.85600 0.59600 0.98000 0.13000
H 	H 	0.77900 0.73900 0.95600 0.13000
H 	H 	0.91900 0.74500 0.95400 0.16400
H 	H 	0.87800 0.73200 0.08800 0.13300
H 	H 	0.40400 0.14400 0.52000 0.13100
H 	H 	0.26100 0.22100 0.54400 0.13000
H 	H 	0.25500 0.08100 0.54600 0.16500
H 	H 	0.26800 0.12200 0.41200 0.13200
H 	H 	0.14400 0.40400 0.02000 0.13000
H 	H 	0.22100 0.26100 0.04400 0.13000
H 	H 	0.08100 0.25500 0.04600 0.16400
H 	H 	0.12200 0.26800 0.91200 0.13300
H 	H 	0.59600 0.85600 0.48000 0.13100
H 	H 	0.73900 0.77900 0.45600 0.13000
H 	H 	0.74500 0.91900 0.45400 0.16500
H 	H 	0.73200 0.87800 0.58800 0.13200
C 	C 	0.20752 0.94798 0.89966 0.32400
C 	C 	0.35786 0.97862 0.95565 -0.04300
C 	C 	0.46914 0.97836 0.87789 0.00700
C 	C 	0.38855 0.00097 0.07962 -0.04800
C 	C 	0.27417 0.00501 0.16921 0.33400
C 	C 	0.05202 0.79248 0.60034 0.32200
C 	C 	0.02138 0.64214 0.54435 -0.04300
C 	C 	0.02164 0.53086 0.62211 0.00700
C 	C 	0.99903 0.61145 0.42038 -0.04800
C 	C 	0.99499 0.72583 0.33079 0.33400
C 	C 	0.79248 0.05202 0.10034 0.32400
C 	C 	0.64214 0.02138 0.04435 -0.04300
C 	C 	0.53086 0.02164 0.12211 0.00700
C 	C 	0.61145 0.99903 0.92038 -0.04800
C 	C 	0.72583 0.99499 0.83079 0.33400
C 	C 	0.94798 0.20752 0.39966 0.32200
C 	C 	0.97862 0.35786 0.45565 -0.04300
C 	C 	0.97836 0.46914 0.37789 0.00700
C 	C 	0.00097 0.38855 0.57962 -0.04800
C 	C 	0.00501 0.27417 0.66921 0.33400
N 	N 	0.84900 0.69680 0.99800 -0.34300
N 	N 	0.30320 0.15100 0.50200 -0.34300
N 	N 	0.15100 0.30320 0.00200 -0.34300
N 	N 	0.69680 0.84900 0.49800 -0.34300
O 	O 	0.17844 0.05416 0.84694 -0.41800
O 	O 	0.12594 0.82354 0.90031 -0.29800
O 	O 	0.29851 0.99189 0.27795 -0.31300
O 	O 	0.15639 0.02317 0.12755 -0.42800
O 	O 	0.94584 0.82156 0.65306 -0.41700
O 	O 	0.17646 0.87406 0.59969 -0.29800
O 	O 	0.00811 0.70149 0.22205 -0.31300
O 	O 	0.97683 0.84361 0.37245 -0.42800
O 	O 	0.82156 0.94584 0.15306 -0.41800
O 	O 	0.87406 0.17646 0.09969 -0.29800
O 	O 	0.70149 0.00811 0.72205 -0.31300
O 	O 	0.84361 0.97683 0.87245 -0.42800
O 	O 	0.05416 0.17844 0.34694 -0.41700
O 	O 	0.82354 0.12594 0.40031 -0.29800
O 	O 	0.99189 0.29851 0.77795 -0.31300
O 	O 	0.02317 0.15639 0.62755 -0.42800
