data_crystal

_cell_length_a 11.68300
_cell_length_b 15.57100
_cell_length_c 26.71000
_cell_angle_alpha 90.00000
_cell_angle_beta  90.00000
_cell_angle_gamma 90.00000

_symmetry_space_group_name_	'P 1'
_symmetry_space_group_name_H-M	'P 1'

loop_
_symmetry_equiv_pos_as_xyz
  x,y,z

loop_
_atom_site_label
_atom_site_type_symbol
_atom_site_fract_x
_atom_site_fract_y
_atom_site_fract_z
_atom_site_charge
Zn	Zn	0.52804 0.56649 0.70428 1.21900
Zn	Zn	0.97196 0.43351 0.20428 1.21900
Zn	Zn	0.47196 0.06649 0.79572 1.21900
Zn	Zn	0.02804 0.93351 0.29572 1.21900
H 	H 	0.52850 0.47290 0.54390 0.28900
H 	H 	0.97150 0.52710 0.04390 0.28800
H 	H 	0.47150 0.97290 0.95610 0.28900
H 	H 	0.02850 0.02710 0.45610 0.29000
H 	H 	0.25750 0.52680 0.30600 0.29100
H 	H 	0.24250 0.47320 0.80600 0.29100
H 	H 	0.74250 0.02680 0.19400 0.29100
H 	H 	0.75750 0.97320 0.69400 0.29100
H 	H 	0.28220 0.66180 0.59420 0.03000
H 	H 	0.21780 0.33820 0.09420 0.03000
H 	H 	0.71780 0.16180 0.90580 0.03100
H 	H 	0.78220 0.83820 0.40580 0.03000
H 	H 	0.14360 0.74570 0.55380 0.03800
H 	H 	0.35640 0.25430 0.05380 0.03800
H 	H 	0.85640 0.24570 0.94620 0.03900
H 	H 	0.64360 0.75430 0.44620 0.03900
H 	H 	0.03330 0.77840 0.48390 0.06500
H 	H 	0.46670 0.22160 0.98390 0.06500
H 	H 	0.96670 0.27840 0.01610 0.06500
H 	H 	0.53330 0.72160 0.51610 0.06500
H 	H 	0.06210 0.69850 0.41020 0.02200
H 	H 	0.43790 0.30150 0.91020 0.02200
H 	H 	0.93790 0.19850 0.08980 0.02200
H 	H 	0.56210 0.80150 0.58980 0.02200
H 	H 	0.19760 0.59480 0.40690 0.09700
H 	H 	0.30240 0.40520 0.90690 0.09700
H 	H 	0.80240 0.09480 0.09310 0.09700
H 	H 	0.69760 0.90520 0.59310 0.09700
H 	H 	0.04480 0.30920 0.34940 0.03100
H 	H 	0.45520 0.69080 0.84940 0.03000
H 	H 	0.95520 0.80920 0.15060 0.03100
H 	H 	0.54480 0.19080 0.65060 0.03100
H 	H 	0.03980 0.21970 0.42110 0.03600
H 	H 	0.46020 0.78030 0.92110 0.03600
H 	H 	0.96020 0.71970 0.07890 0.03700
H 	H 	0.53980 0.28030 0.57890 0.03600
H 	H 	0.10730 0.17620 0.49780 0.07600
H 	H 	0.39270 0.82380 0.99780 0.07600
H 	H 	0.89270 0.67620 0.00220 0.07500
H 	H 	0.60730 0.32380 0.50220 0.07500
H 	H 	0.28140 0.24170 0.52450 0.02400
H 	H 	0.21860 0.75830 0.02450 0.02400
H 	H 	0.71860 0.74170 0.97550 0.02500
H 	H 	0.78140 0.25830 0.47550 0.02400
H 	H 	0.32570 0.37650 0.49760 0.09300
H 	H 	0.17430 0.62350 0.99760 0.09300
H 	H 	0.67430 0.87650 0.00240 0.09200
H 	H 	0.82570 0.12350 0.50240 0.09300
H 	H 	0.39680 0.53210 0.40270 0.07400
H 	H 	0.10320 0.46790 0.90270 0.07400
H 	H 	0.60320 0.03210 0.09730 0.07500
H 	H 	0.89680 0.96790 0.59730 0.07500
H 	H 	0.43520 0.45470 0.43570 0.07600
H 	H 	0.06480 0.54530 0.93570 0.07600
H 	H 	0.56480 0.95470 0.06430 0.07700
H 	H 	0.93520 0.04530 0.56430 0.07700
H 	H 	0.54380 0.42260 0.78280 -0.00800
H 	H 	0.95620 0.57740 0.28280 -0.00800
H 	H 	0.45620 0.92260 0.71720 -0.00800
H 	H 	0.04380 0.07740 0.21720 -0.00700
H 	H 	0.68820 0.41690 0.65370 0.03100
H 	H 	0.81180 0.58310 0.15370 0.03100
H 	H 	0.31180 0.91690 0.84630 0.03100
H 	H 	0.18820 0.08310 0.34630 0.03100
H 	H 	0.75680 0.29560 0.70200 0.04000
H 	H 	0.74320 0.70440 0.20200 0.04000
H 	H 	0.24320 0.79560 0.79800 0.04000
H 	H 	0.25680 0.20440 0.29800 0.04000
H 	H 	0.63220 0.21440 0.78140 0.07000
H 	H 	0.86780 0.78560 0.28140 0.07000
H 	H 	0.36780 0.71440 0.71860 0.07000
H 	H 	0.13220 0.28560 0.21860 0.07000
H 	H 	0.61090 0.28510 0.82230 0.07000
H 	H 	0.88910 0.71490 0.32230 0.07100
H 	H 	0.38910 0.78510 0.67770 0.07000
H 	H 	0.11090 0.21490 0.17770 0.07100
H 	H 	0.79910 0.13650 0.80150 0.06700
H 	H 	0.70090 0.86350 0.30150 0.06800
H 	H 	0.20090 0.63650 0.69850 0.06800
H 	H 	0.29910 0.36350 0.19850 0.06800
H 	H 	0.97480 0.12130 0.83810 0.06200
H 	H 	0.52520 0.87870 0.33810 0.06100
H 	H 	0.02520 0.62130 0.66190 0.06200
H 	H 	0.47480 0.37870 0.16190 0.06100
H 	H 	0.98620 0.37300 0.85930 0.06800
H 	H 	0.51380 0.62700 0.35930 0.06700
H 	H 	0.01380 0.87300 0.64070 0.06700
H 	H 	0.48620 0.12700 0.14070 0.06700
H 	H 	0.80720 0.38560 0.82690 0.05700
H 	H 	0.69280 0.61440 0.32690 0.05800
H 	H 	0.19280 0.88560 0.67310 0.05800
H 	H 	0.30720 0.11440 0.17310 0.05800
H 	H 	0.13010 0.28740 0.89450 0.07900
H 	H 	0.36990 0.71260 0.39450 0.07900
H 	H 	0.86990 0.78740 0.60550 0.07900
H 	H 	0.63010 0.21260 0.10550 0.07900
H 	H 	0.10610 0.18890 0.90010 0.07300
H 	H 	0.39390 0.81110 0.40010 0.07300
H 	H 	0.89390 0.68890 0.59990 0.07300
H 	H 	0.60610 0.31110 0.09990 0.07300
H 	H 	0.20540 0.31930 0.79370 0.04900
H 	H 	0.29460 0.68070 0.29370 0.04900
H 	H 	0.79460 0.81930 0.70630 0.04900
H 	H 	0.70540 0.18070 0.20630 0.04900
H 	H 	0.36780 0.24940 0.75620 0.03200
H 	H 	0.13220 0.75060 0.25620 0.03200
H 	H 	0.63220 0.74940 0.74380 0.03200
H 	H 	0.86780 0.25060 0.24380 0.03200
H 	H 	0.26780 0.11120 0.86880 -0.00800
H 	H 	0.23220 0.88880 0.36880 -0.00800
H 	H 	0.73220 0.61120 0.63120 -0.00800
H 	H 	0.76780 0.38880 0.13120 -0.00800
C 	C 	0.45060 0.55770 0.61050 0.38000
C 	C 	0.04940 0.44230 0.11050 0.38100
C 	C 	0.54940 0.05770 0.88950 0.37900
C 	C 	0.95060 0.94230 0.38950 0.38100
C 	C 	0.29850 0.63290 0.56460 0.04900
C 	C 	0.20150 0.36710 0.06460 0.04900
C 	C 	0.70150 0.13290 0.93540 0.04800
C 	C 	0.79850 0.86710 0.43540 0.04900
C 	C 	0.38470 0.57620 0.56390 -0.20300
C 	C 	0.11530 0.42380 0.06390 -0.20400
C 	C 	0.61530 0.07620 0.93610 -0.20300
C 	C 	0.88470 0.92380 0.43610 -0.20400
C 	C 	0.40750 0.53290 0.51880 0.24300
C 	C 	0.09250 0.46710 0.01880 0.24300
C 	C 	0.59250 0.03290 0.98120 0.24100
C 	C 	0.90750 0.96710 0.48120 0.24400
C 	C 	0.34800 0.54430 0.47490 -0.09500
C 	C 	0.15200 0.45570 0.97490 -0.09500
C 	C 	0.65200 0.04430 0.02510 -0.09300
C 	C 	0.84800 0.95570 0.52510 -0.09300
C 	C 	0.25720 0.60250 0.47570 0.08100
C 	C 	0.24280 0.39750 0.97570 0.08100
C 	C 	0.74280 0.10250 0.02430 0.08000
C 	C 	0.75720 0.89750 0.52430 0.08000
C 	C 	0.23320 0.65000 0.52270 -0.04600
C 	C 	0.26680 0.35000 0.02270 -0.04600
C 	C 	0.76680 0.15000 0.97730 -0.04500
C 	C 	0.73320 0.85000 0.47730 -0.04600
C 	C 	0.15360 0.71480 0.52430 -0.01300
C 	C 	0.34640 0.28520 0.02430 -0.01200
C 	C 	0.84640 0.21480 0.97570 -0.01400
C 	C 	0.65360 0.78520 0.47570 -0.01300
C 	C 	0.08770 0.73490 0.48270 -0.08400
C 	C 	0.41230 0.26510 0.98270 -0.08500
C 	C 	0.91230 0.23490 0.01730 -0.08300
C 	C 	0.58770 0.76510 0.51730 -0.08300
C 	C 	0.10610 0.68720 0.43850 0.03100
C 	C 	0.39390 0.31280 0.93850 0.03200
C 	C 	0.89390 0.18720 0.06150 0.03000
C 	C 	0.60610 0.81280 0.56150 0.03100
C 	C 	0.18830 0.62450 0.43680 -0.13300
C 	C 	0.31170 0.37550 0.93680 -0.13400
C 	C 	0.81170 0.12450 0.06320 -0.13300
C 	C 	0.68830 0.87550 0.56320 -0.13300
C 	C 	0.10760 0.42890 0.28700 0.35900
C 	C 	0.39240 0.57110 0.78700 0.35900
C 	C 	0.89240 0.92890 0.21300 0.35900
C 	C 	0.60760 0.07110 0.71300 0.35800
C 	C 	0.10470 0.34020 0.36360 0.04600
C 	C 	0.39530 0.65980 0.86360 0.04600
C 	C 	0.89530 0.84020 0.13640 0.04500
C 	C 	0.60470 0.15980 0.63640 0.04500
C 	C 	0.14990 0.40980 0.33970 -0.19800
C 	C 	0.35010 0.59020 0.83970 -0.19900
C 	C 	0.85010 0.90980 0.16030 -0.19800
C 	C 	0.64990 0.09020 0.66030 -0.19800
C 	C 	0.24160 0.45310 0.35870 0.24800
C 	C 	0.25840 0.54690 0.85870 0.24800
C 	C 	0.75840 0.95310 0.14130 0.24700
C 	C 	0.74160 0.04690 0.64130 0.24600
C 	C 	0.28090 0.43970 0.40650 -0.09200
C 	C 	0.21910 0.56030 0.90650 -0.09200
C 	C 	0.71910 0.93970 0.09350 -0.09100
C 	C 	0.78090 0.06030 0.59350 -0.09100
C 	C 	0.23750 0.36800 0.43140 0.07900
C 	C 	0.26250 0.63200 0.93140 0.08000
C 	C 	0.76250 0.86800 0.06860 0.07800
C 	C 	0.73750 0.13200 0.56860 0.07800
C 	C 	0.15040 0.31670 0.40960 -0.04800
C 	C 	0.34960 0.68330 0.90960 -0.04800
C 	C 	0.84960 0.81670 0.09040 -0.04700
C 	C 	0.65040 0.18330 0.59040 -0.04700
C 	C 	0.10190 0.24800 0.43530 -0.00400
C 	C 	0.39810 0.75200 0.93530 -0.00400
C 	C 	0.89810 0.74800 0.06470 -0.00500
C 	C 	0.60190 0.25200 0.56470 -0.00400
C 	C 	0.14140 0.22080 0.48010 -0.09000
C 	C 	0.35860 0.77920 0.98010 -0.09000
C 	C 	0.85860 0.72080 0.01990 -0.08900
C 	C 	0.64140 0.27920 0.51990 -0.09000
C 	C 	0.24010 0.26590 0.49830 0.03100
C 	C 	0.25990 0.73410 0.99830 0.03100
C 	C 	0.75990 0.76590 0.00170 0.02800
C 	C 	0.74010 0.23410 0.50170 0.03000
C 	C 	0.27610 0.34180 0.47940 -0.12600
C 	C 	0.22390 0.65820 0.97940 -0.12600
C 	C 	0.72390 0.84180 0.02060 -0.12400
C 	C 	0.77610 0.15820 0.52060 -0.12500
C 	C 	0.37120 0.49240 0.42840 -0.06400
C 	C 	0.12880 0.50760 0.92840 -0.06400
C 	C 	0.62880 0.99240 0.07160 -0.06600
C 	C 	0.87120 0.00760 0.57160 -0.06800
C 	C 	0.58800 0.40640 0.75540 0.09700
C 	C 	0.91200 0.59360 0.25540 0.09700
C 	C 	0.41200 0.90640 0.74460 0.09700
C 	C 	0.08800 0.09360 0.24460 0.09700
C 	C 	0.66680 0.40450 0.68650 0.00200
C 	C 	0.83320 0.59550 0.18650 0.00200
C 	C 	0.33320 0.90450 0.81350 0.00200
C 	C 	0.16680 0.09550 0.31350 0.00200
C 	C 	0.70250 0.33520 0.71270 0.00000
C 	C 	0.79750 0.66480 0.21270 0.00000
C 	C 	0.29750 0.83520 0.78730 0.00000
C 	C 	0.20250 0.16480 0.28730 0.00000
C 	C 	0.65850 0.26940 0.79400 -0.12100
C 	C 	0.84150 0.73060 0.29400 -0.12200
C 	C 	0.34150 0.76940 0.70600 -0.12100
C 	C 	0.15850 0.23060 0.20600 -0.12200
C 	C 	0.77800 0.26210 0.81020 0.06500
C 	C 	0.72200 0.73790 0.31020 0.06700
C 	C 	0.22200 0.76210 0.68980 0.06500
C 	C 	0.27800 0.23790 0.18980 0.06700
C 	C 	0.83500 0.18530 0.81390 -0.07000
C 	C 	0.66500 0.81470 0.31390 -0.07300
C 	C 	0.16500 0.68530 0.68610 -0.07100
C 	C 	0.33500 0.31470 0.18610 -0.07300
C 	C 	0.94320 0.17590 0.83500 -0.07600
C 	C 	0.55680 0.82410 0.33500 -0.07200
C 	C 	0.05680 0.67590 0.66500 -0.07400
C 	C 	0.44320 0.32410 0.16500 -0.07200
C 	C 	0.00380 0.24620 0.85120 0.07700
C 	C 	0.49620 0.75380 0.35120 0.07400
C 	C 	0.99620 0.74620 0.64880 0.07600
C 	C 	0.50380 0.25380 0.14880 0.07400
C 	C 	0.94900 0.32400 0.84790 -0.08500
C 	C 	0.55100 0.67600 0.34790 -0.08100
C 	C 	0.05100 0.82400 0.65210 -0.08300
C 	C 	0.44900 0.17600 0.15210 -0.08100
C 	C 	0.84040 0.33130 0.82820 -0.06100
C 	C 	0.65960 0.66870 0.32820 -0.06300
C 	C 	0.15960 0.83130 0.67180 -0.06100
C 	C 	0.34040 0.16870 0.17180 -0.06300
C 	C 	0.11280 0.23530 0.87600 -0.12900
C 	C 	0.38720 0.76470 0.37600 -0.12600
C 	C 	0.88720 0.73530 0.62400 -0.12800
C 	C 	0.61280 0.26470 0.12400 -0.12600
C 	C 	0.23810 0.26780 0.80400 -0.00700
C 	C 	0.26190 0.73220 0.30400 -0.00700
C 	C 	0.76190 0.76780 0.69600 -0.00700
C 	C 	0.73810 0.23220 0.19600 -0.00700
C 	C 	0.32610 0.22830 0.78310 -0.00100
C 	C 	0.17390 0.77170 0.28310 -0.00100
C 	C 	0.67390 0.72830 0.71690 -0.00100
C 	C 	0.82610 0.27170 0.21690 -0.00100
C 	C 	0.27200 0.15320 0.84410 0.10600
C 	C 	0.22800 0.84680 0.34410 0.10600
C 	C 	0.72800 0.65320 0.65590 0.10600
C 	C 	0.77200 0.34680 0.15590 0.10600
N 	N 	0.59370 0.45450 0.71540 -0.27600
N 	N 	0.90630 0.54550 0.21540 -0.27600
N 	N 	0.40630 0.95450 0.78460 -0.27600
N 	N 	0.09370 0.04550 0.28460 -0.27600
N 	N 	0.64790 0.33280 0.75570 -0.10900
N 	N 	0.85210 0.66720 0.25570 -0.10800
N 	N 	0.35210 0.83280 0.74430 -0.10900
N 	N 	0.14790 0.16720 0.24430 -0.10800
N 	N 	0.34810 0.14880 0.80780 -0.26700
N 	N 	0.15190 0.85120 0.30780 -0.26700
N 	N 	0.65190 0.64880 0.69220 -0.26700
N 	N 	0.84810 0.35120 0.19220 -0.26700
N 	N 	0.20410 0.21750 0.84420 -0.10800
N 	N 	0.29590 0.78250 0.34420 -0.10800
N 	N 	0.79590 0.71750 0.65580 -0.10800
N 	N 	0.70410 0.28250 0.15580 -0.10800
O 	O 	0.41940 0.59110 0.65102 -0.47100
O 	O 	0.08060 0.40890 0.15102 -0.47100
O 	O 	0.58060 0.09110 0.84898 -0.47100
O 	O 	0.91940 0.90890 0.34898 -0.47100
O 	O 	0.54250 0.51810 0.60624 -0.36200
O 	O 	0.95750 0.48190 0.10624 -0.36300
O 	O 	0.45750 0.01810 0.89376 -0.36200
O 	O 	0.04250 0.98190 0.39376 -0.36300
O 	O 	0.49650 0.47510 0.51659 -0.44500
O 	O 	0.00350 0.52490 0.01659 -0.44400
O 	O 	0.50350 0.97510 0.98341 -0.44400
O 	O 	0.99650 0.02490 0.48341 -0.44700
O 	O 	0.02410 0.38770 0.26801 -0.46100
O 	O 	0.47590 0.61230 0.76801 -0.46200
O 	O 	0.97590 0.88770 0.23199 -0.46100
O 	O 	0.52410 0.11230 0.73199 -0.46200
O 	O 	0.15200 0.49040 0.26333 -0.34700
O 	O 	0.34800 0.50960 0.76333 -0.34700
O 	O 	0.84800 0.99040 0.23667 -0.34700
O 	O 	0.65200 0.00960 0.73667 -0.34700
O 	O 	0.28880 0.52160 0.33336 -0.44700
O 	O 	0.21120 0.47840 0.83336 -0.44700
O 	O 	0.71120 0.02160 0.16664 -0.44700
O 	O 	0.78880 0.97840 0.66664 -0.44600
