data_crystal

_cell_length_a 12.17800
_cell_length_b 14.68200
_cell_length_c 14.68200
_cell_angle_alpha 120.00000
_cell_angle_beta  90.00000
_cell_angle_gamma 90.00000

_symmetry_space_group_name_	'P 1'
_symmetry_space_group_name_H-M	'P 1'

loop_
_symmetry_equiv_pos_as_xyz
  x,y,z

loop_
_atom_site_label
_atom_site_type_symbol
_atom_site_fract_x
_atom_site_fract_y
_atom_site_fract_z
_atom_site_charge
In	In	0.16667 0.50000 -0.00000 1.97100
In	In	0.50000 0.50000 0.50000 2.00000
In	In	0.83333 0.00000 0.50000 1.97100
H 	H 	0.90940 0.65510 0.87450 0.10000
H 	H 	0.90640 0.33860 0.71870 0.07500
H 	H 	0.24273 0.21940 0.34490 0.05200
H 	H 	0.23973 0.38010 0.66140 0.07600
H 	H 	0.57607 0.12550 0.78060 0.05800
H 	H 	0.57307 0.28130 0.61990 0.06100
H 	H 	0.90940 0.34490 0.12550 0.04200
H 	H 	0.90640 0.66140 0.28130 0.06800
H 	H 	0.24273 0.78060 0.65510 0.09000
H 	H 	0.23973 0.61990 0.33860 0.06800
H 	H 	0.57607 0.87450 0.21940 0.08500
H 	H 	0.57307 0.71870 0.38010 0.08300
H 	H 	0.42393 0.78060 0.12550 0.05800
H 	H 	0.42693 0.61990 0.28130 0.06100
H 	H 	0.09060 0.87450 0.65510 0.10000
H 	H 	0.09360 0.71870 0.33860 0.07500
H 	H 	0.75727 0.34490 0.21940 0.05200
H 	H 	0.76027 0.66140 0.38010 0.07600
H 	H 	0.42393 0.21940 0.87450 0.08500
H 	H 	0.42693 0.38010 0.71870 0.08300
H 	H 	0.09060 0.12550 0.34490 0.04200
H 	H 	0.09360 0.28130 0.66140 0.06800
H 	H 	0.75727 0.65510 0.78060 0.09000
H 	H 	0.76027 0.33860 0.61990 0.06800
C 	C 	0.87790 0.59210 0.82410 -0.02400
C 	C 	0.92210 0.49410 0.80430 -0.01600
C 	C 	0.87730 0.40200 0.73010 -0.03100
C 	C 	0.01710 0.49350 0.87110 0.28900
C 	C 	0.21123 0.23200 0.40790 -0.03700
C 	C 	0.25543 0.31020 0.50590 -0.03500
C 	C 	0.21063 0.32810 0.59800 -0.03500
C 	C 	0.35043 0.37760 0.50650 0.29000
C 	C 	0.54457 0.17590 0.76800 -0.00600
C 	C 	0.58877 0.19570 0.68980 -0.05600
C 	C 	0.54397 0.26990 0.67190 -0.00600
C 	C 	0.68377 0.12890 0.62240 0.30300
C 	C 	0.87790 0.40790 0.17590 -0.02500
C 	C 	0.92210 0.50590 0.19570 -0.05000
C 	C 	0.87730 0.59800 0.26990 -0.02200
C 	C 	0.01710 0.50650 0.12890 0.29500
C 	C 	0.21123 0.76800 0.59210 -0.01200
C 	C 	0.25543 0.68980 0.49410 -0.03100
C 	C 	0.21063 0.67190 0.40200 -0.01800
C 	C 	0.35043 0.62240 0.49350 0.29500
C 	C 	0.54457 0.82410 0.23200 -0.04300
C 	C 	0.58877 0.80430 0.31020 -0.01000
C 	C 	0.54397 0.73010 0.32810 -0.04700
C 	C 	0.68377 0.87110 0.37760 0.28200
C 	C 	0.45543 0.76800 0.17590 -0.00600
C 	C 	0.41123 0.68980 0.19570 -0.05600
C 	C 	0.45603 0.67190 0.26990 -0.00600
C 	C 	0.31623 0.62240 0.12890 0.30300
C 	C 	0.12210 0.82410 0.59210 -0.02400
C 	C 	0.07790 0.80430 0.49410 -0.01600
C 	C 	0.12270 0.73010 0.40200 -0.03100
C 	C 	0.98290 0.87110 0.49350 0.28900
C 	C 	0.78877 0.40790 0.23200 -0.03700
C 	C 	0.74457 0.50590 0.31020 -0.03500
C 	C 	0.78937 0.59800 0.32810 -0.03500
C 	C 	0.64957 0.50650 0.37760 0.29000
C 	C 	0.45543 0.23200 0.82410 -0.04300
C 	C 	0.41123 0.31020 0.80430 -0.01000
C 	C 	0.45603 0.32810 0.73010 -0.04700
C 	C 	0.31623 0.37760 0.87110 0.28200
C 	C 	0.12210 0.17590 0.40790 -0.02500
C 	C 	0.07790 0.19570 0.50590 -0.05000
C 	C 	0.12270 0.26990 0.59800 -0.02200
C 	C 	0.98290 0.12890 0.50650 0.29500
C 	C 	0.78877 0.59210 0.76800 -0.01200
C 	C 	0.74457 0.49410 0.68980 -0.03100
C 	C 	0.78937 0.40200 0.67190 -0.01800
C 	C 	0.64957 0.49350 0.62240 0.29500
O 	O 	0.06720 0.58060 0.92960 -0.35500
O 	O 	0.04160 0.41280 0.87120 -0.40400
O 	O 	0.40053 0.34900 0.41940 -0.43000
O 	O 	0.37493 0.45840 0.58720 -0.43100
O 	O 	0.73387 0.07040 0.65100 -0.45100
O 	O 	0.70827 0.12880 0.54160 -0.47000
O 	O 	0.06720 0.41940 0.07040 -0.46600
O 	O 	0.04160 0.58720 0.12880 -0.46400
O 	O 	0.40053 0.65100 0.58060 -0.39800
O 	O 	0.37493 0.54160 0.41280 -0.44400
O 	O 	0.73387 0.92960 0.34900 -0.36900
O 	O 	0.70827 0.87120 0.45840 -0.39700
O 	O 	0.26613 0.65100 0.07040 -0.45100
O 	O 	0.29173 0.54160 0.12880 -0.47000
O 	O 	0.93280 0.92960 0.58060 -0.35500
O 	O 	0.95840 0.87120 0.41280 -0.40400
O 	O 	0.59947 0.41940 0.34900 -0.43000
O 	O 	0.62507 0.58720 0.45840 -0.43100
O 	O 	0.26613 0.34900 0.92960 -0.36900
O 	O 	0.29173 0.45840 0.87120 -0.39700
O 	O 	0.93280 0.07040 0.41940 -0.46600
O 	O 	0.95840 0.12880 0.58720 -0.46400
O 	O 	0.59947 0.58060 0.65100 -0.39800
O 	O 	0.62507 0.41280 0.54160 -0.44400
