data_crystal

_cell_length_a 9.32000
_cell_length_b 12.60800
_cell_length_c 16.10700
_cell_angle_alpha 90.00000
_cell_angle_beta  90.00000
_cell_angle_gamma 100.94200

_symmetry_space_group_name_	'P 1'
_symmetry_space_group_name_H-M	'P 1'

loop_
_symmetry_equiv_pos_as_xyz
  x,y,z

loop_
_atom_site_label
_atom_site_type_symbol
_atom_site_fract_x
_atom_site_fract_y
_atom_site_fract_z
_atom_site_charge
Zn	Zn	0.36729 0.02326 0.91258 1.23700
Zn	Zn	0.13271 0.47674 0.41258 1.23800
Zn	Zn	0.63271 0.97674 0.08742 1.23700
Zn	Zn	0.86729 0.52326 0.58742 1.23800
H 	H 	0.95800 0.09060 0.91790 0.02200
H 	H 	0.08450 0.29580 0.73090 0.02500
H 	H 	0.66760 0.24030 0.80680 0.02800
H 	H 	0.54200 0.40940 0.41790 0.02400
H 	H 	0.41550 0.20420 0.23090 0.02600
H 	H 	0.83240 0.25970 0.30680 0.02900
H 	H 	0.04200 0.90940 0.08210 0.02300
H 	H 	0.91550 0.70420 0.26910 0.02600
H 	H 	0.33240 0.75970 0.19320 0.02800
H 	H 	0.45800 0.59060 0.58210 0.02400
H 	H 	0.58450 0.79580 0.76910 0.02600
H 	H 	0.16760 0.74030 0.69320 0.02900
H 	H 	0.06000 0.71490 0.95300 0.14700
H 	H 	0.99080 0.61410 0.89970 0.13500
H 	H 	0.90150 0.65250 0.97260 0.13700
H 	H 	0.80650 0.82430 0.95280 0.15600
H 	H 	0.82380 0.87480 0.86350 0.15900
H 	H 	0.95750 0.89160 0.92430 0.16400
H 	H 	0.83460 0.70310 0.85040 0.11900
H 	H 	0.98050 0.76260 0.83420 0.13200
H 	H 	0.44000 0.78510 0.45300 0.14500
H 	H 	0.50920 0.88590 0.39970 0.13400
H 	H 	0.59850 0.84750 0.47260 0.13600
H 	H 	0.69350 0.67570 0.45280 0.15500
H 	H 	0.67620 0.62520 0.36350 0.15800
H 	H 	0.54250 0.60840 0.42430 0.16400
H 	H 	0.66540 0.79690 0.35040 0.11900
H 	H 	0.51950 0.73740 0.33420 0.13300
H 	H 	0.94000 0.28510 0.04700 0.14700
H 	H 	0.00920 0.38590 0.10030 0.13500
H 	H 	0.09850 0.34750 0.02740 0.13700
H 	H 	0.19350 0.17570 0.04720 0.15600
H 	H 	0.17620 0.12520 0.13650 0.15900
H 	H 	0.04250 0.10840 0.07570 0.16400
H 	H 	0.16540 0.29690 0.14960 0.11900
H 	H 	0.01950 0.23740 0.16580 0.13200
H 	H 	0.56000 0.21490 0.54700 0.14500
H 	H 	0.49080 0.11410 0.60030 0.13400
H 	H 	0.40150 0.15250 0.52740 0.13600
H 	H 	0.30650 0.32430 0.54720 0.15500
H 	H 	0.32380 0.37480 0.63650 0.15800
H 	H 	0.45750 0.39160 0.57570 0.16400
H 	H 	0.33460 0.20310 0.64960 0.11900
H 	H 	0.48050 0.26260 0.66580 0.13300
C 	C 	0.79390 0.15800 0.87240 -0.15900
C 	C 	0.93570 0.13810 0.87780 0.08100
C 	C 	0.04400 0.18820 0.82400 -0.14300
C 	C 	0.01130 0.26020 0.76570 0.06900
C 	C 	0.86980 0.28010 0.75850 -0.13100
C 	C 	0.76250 0.22800 0.81180 0.07600
C 	C 	0.67910 0.10300 0.93200 0.42200
C 	C 	0.19660 0.16230 0.83050 0.38100
C 	C 	0.83270 0.35690 0.69380 0.34700
C 	C 	0.70610 0.34200 0.37240 -0.15800
C 	C 	0.56430 0.36190 0.37780 0.07700
C 	C 	0.45600 0.31180 0.32400 -0.14000
C 	C 	0.48870 0.23980 0.26570 0.07000
C 	C 	0.63020 0.21990 0.25850 -0.13100
C 	C 	0.73750 0.27200 0.31180 0.07600
C 	C 	0.82090 0.39700 0.43200 0.42200
C 	C 	0.30340 0.33770 0.33050 0.38000
C 	C 	0.66730 0.14310 0.19380 0.34700
C 	C 	0.20610 0.84200 0.12760 -0.15900
C 	C 	0.06430 0.86190 0.12220 0.08100
C 	C 	0.95600 0.81180 0.17600 -0.14300
C 	C 	0.98870 0.73980 0.23430 0.06900
C 	C 	0.13020 0.71990 0.24150 -0.13100
C 	C 	0.23750 0.77200 0.18820 0.07600
C 	C 	0.32090 0.89700 0.06800 0.42200
C 	C 	0.80340 0.83770 0.16950 0.38100
C 	C 	0.16730 0.64310 0.30620 0.34700
C 	C 	0.29390 0.65800 0.62760 -0.15800
C 	C 	0.43570 0.63810 0.62220 0.07700
C 	C 	0.54400 0.68820 0.67600 -0.14000
C 	C 	0.51130 0.76020 0.73430 0.07000
C 	C 	0.36980 0.78010 0.74150 -0.13100
C 	C 	0.26250 0.72800 0.68820 0.07600
C 	C 	0.17910 0.60300 0.56800 0.42200
C 	C 	0.69660 0.66230 0.66950 0.38000
C 	C 	0.33270 0.85690 0.80620 0.34700
C 	C 	0.97100 0.67590 0.92920 -0.34500
C 	C 	0.87180 0.84200 0.90660 -0.38300
C 	C 	0.52900 0.82410 0.42920 -0.34200
C 	C 	0.62820 0.65800 0.40660 -0.38100
C 	C 	0.02900 0.32410 0.07080 -0.34500
C 	C 	0.12820 0.15800 0.09340 -0.38300
C 	C 	0.47100 0.17590 0.57080 -0.34200
C 	C 	0.37180 0.34200 0.59340 -0.38100
N 	N 	0.91400 0.74300 0.87450 -0.13700
N 	N 	0.58600 0.75700 0.37450 -0.13800
N 	N 	0.08600 0.25700 0.12550 -0.13700
N 	N 	0.41400 0.24300 0.62550 -0.13800
O 	O 	0.55370 0.12500 0.92570 -0.48900
O 	O 	0.71650 0.03910 0.98290 -0.49600
O 	O 	0.21410 0.10200 0.89120 -0.46800
O 	O 	0.29020 0.19840 0.78000 -0.31200
O 	O 	0.93670 0.42450 0.66400 -0.45600
O 	O 	0.70300 0.35160 0.67330 -0.32300
O 	O 	0.94630 0.37500 0.42570 -0.48800
O 	O 	0.78350 0.46090 0.48290 -0.49600
O 	O 	0.28590 0.39800 0.39120 -0.46600
O 	O 	0.20980 0.30160 0.28000 -0.31200
O 	O 	0.56330 0.07550 0.16400 -0.45500
O 	O 	0.79700 0.14840 0.17330 -0.32200
O 	O 	0.44630 0.87500 0.07430 -0.48900
O 	O 	0.28350 0.96090 0.01710 -0.49600
O 	O 	0.78590 0.89800 0.10880 -0.46800
O 	O 	0.70980 0.80160 0.22000 -0.31200
O 	O 	0.06330 0.57550 0.33600 -0.45600
O 	O 	0.29700 0.64840 0.32670 -0.32300
O 	O 	0.05370 0.62500 0.57430 -0.48800
O 	O 	0.21650 0.53910 0.51710 -0.49600
O 	O 	0.71410 0.60200 0.60880 -0.46600
O 	O 	0.79020 0.69840 0.72000 -0.31200
O 	O 	0.43670 0.92450 0.83600 -0.45500
O 	O 	0.20300 0.85160 0.82670 -0.32200
