data_crystal

_cell_length_a 9.85100
_cell_length_b 16.57700
_cell_length_c 30.67100
_cell_angle_alpha 90.00000
_cell_angle_beta  90.00000
_cell_angle_gamma 90.00000

_symmetry_space_group_name_	'P 1'
_symmetry_space_group_name_H-M	'P 1'

loop_
_symmetry_equiv_pos_as_xyz
  x,y,z

loop_
_atom_site_label
_atom_site_type_symbol
_atom_site_fract_x
_atom_site_fract_y
_atom_site_fract_z
_atom_site_charge
Zn	Zn	0.16033 0.89224 0.65034 1.18400
Zn	Zn	0.36659 0.85819 0.74870 1.18400
Zn	Zn	0.66033 0.60776 0.84966 1.18300
Zn	Zn	0.86659 0.64181 0.75130 1.18400
Zn	Zn	0.33967 0.89224 0.34966 1.18300
Zn	Zn	0.13341 0.85819 0.25130 1.18400
Zn	Zn	0.83967 0.60776 0.15034 1.18400
Zn	Zn	0.63341 0.64181 0.24870 1.18400
Zn	Zn	0.83967 0.10776 0.34966 1.18500
Zn	Zn	0.63341 0.14181 0.25130 1.18500
Zn	Zn	0.33967 0.39224 0.15034 1.18400
Zn	Zn	0.13341 0.35819 0.24870 1.18500
Zn	Zn	0.66033 0.10776 0.65034 1.18400
Zn	Zn	0.86659 0.14181 0.74870 1.18500
Zn	Zn	0.16033 0.39224 0.84966 1.18500
Zn	Zn	0.36659 0.35819 0.75130 1.18500
H 	H 	0.27600 0.02970 0.59640 0.17100
H 	H 	0.39480 0.08530 0.59740 0.16100
H 	H 	0.46300 0.73980 0.86200 0.16800
H 	H 	0.38590 0.79810 0.83460 0.15900
H 	H 	0.40130 0.43800 0.98550 0.05200
H 	H 	0.49440 0.38950 0.92220 0.06100
H 	H 	0.58740 0.18330 0.98290 0.06600
H 	H 	0.48700 0.23240 0.04550 0.05200
H 	H 	0.37980 0.24320 0.85460 0.01800
H 	H 	0.26720 0.14690 0.81450 0.03900
H 	H 	0.65370 0.07990 0.88970 0.07000
H 	H 	0.53620 0.98320 0.85080 0.04800
H 	H 	0.59520 0.96970 0.71610 -0.03100
H 	H 	0.64220 0.76500 0.71250 -0.02800
H 	H 	0.77600 0.47030 0.90360 0.17000
H 	H 	0.89480 0.41470 0.90260 0.16000
H 	H 	0.96300 0.76020 0.63800 0.16800
H 	H 	0.88590 0.70190 0.66540 0.15900
H 	H 	0.90130 0.06200 0.51450 0.05100
H 	H 	0.99440 0.11050 0.57780 0.06100
H 	H 	0.08740 0.31670 0.51710 0.06700
H 	H 	0.98700 0.26760 0.45450 0.05200
H 	H 	0.87980 0.25680 0.64540 0.02100
H 	H 	0.76720 0.35310 0.68550 0.03600
H 	H 	0.15370 0.42010 0.61030 0.07200
H 	H 	0.03620 0.51680 0.64920 0.04500
H 	H 	0.09520 0.53030 0.78390 -0.03100
H 	H 	0.14220 0.73500 0.78750 -0.02800
H 	H 	0.22400 0.02970 0.40360 0.17000
H 	H 	0.10520 0.08530 0.40260 0.16100
H 	H 	0.03700 0.73980 0.13800 0.16700
H 	H 	0.11410 0.79810 0.16540 0.15900
H 	H 	0.09870 0.43800 0.01450 0.05100
H 	H 	0.00560 0.38950 0.07780 0.06100
H 	H 	0.91260 0.18330 0.01710 0.06700
H 	H 	0.01300 0.23240 0.95450 0.05200
H 	H 	0.12020 0.24320 0.14540 0.01900
H 	H 	0.23280 0.14690 0.18550 0.03800
H 	H 	0.84630 0.07990 0.11030 0.07000
H 	H 	0.96380 0.98320 0.14920 0.04800
H 	H 	0.90480 0.96970 0.28390 -0.03100
H 	H 	0.85780 0.76500 0.28750 -0.02800
H 	H 	0.72400 0.47030 0.09640 0.17000
H 	H 	0.60520 0.41470 0.09740 0.16100
H 	H 	0.53700 0.76020 0.36200 0.16800
H 	H 	0.61410 0.70190 0.33460 0.15900
H 	H 	0.59870 0.06200 0.48550 0.05200
H 	H 	0.50560 0.11050 0.42220 0.06100
H 	H 	0.41260 0.31670 0.48290 0.06600
H 	H 	0.51300 0.26760 0.54550 0.05200
H 	H 	0.62020 0.25680 0.35460 0.01900
H 	H 	0.73280 0.35310 0.31450 0.03900
H 	H 	0.34630 0.42010 0.38970 0.07000
H 	H 	0.46380 0.51680 0.35080 0.04800
H 	H 	0.40480 0.53030 0.21610 -0.03000
H 	H 	0.35780 0.73500 0.21250 -0.02900
H 	H 	0.72400 0.97030 0.40360 0.17100
H 	H 	0.60520 0.91470 0.40260 0.16100
H 	H 	0.53700 0.26020 0.13800 0.16800
H 	H 	0.61410 0.20190 0.16540 0.15900
H 	H 	0.59870 0.56200 0.01450 0.05200
H 	H 	0.50560 0.61050 0.07780 0.06100
H 	H 	0.41260 0.81670 0.01710 0.06600
H 	H 	0.51300 0.76760 0.95450 0.05200
H 	H 	0.62020 0.75680 0.14540 0.01800
H 	H 	0.73280 0.85310 0.18550 0.03900
H 	H 	0.34630 0.92010 0.11030 0.07000
H 	H 	0.46380 0.01680 0.14920 0.04800
H 	H 	0.40480 0.03030 0.28390 -0.03100
H 	H 	0.35780 0.23500 0.28750 -0.02800
H 	H 	0.22400 0.52970 0.09640 0.17000
H 	H 	0.10520 0.58530 0.09740 0.16000
H 	H 	0.03700 0.23980 0.36200 0.16800
H 	H 	0.11410 0.29810 0.33460 0.15900
H 	H 	0.09870 0.93800 0.48550 0.05100
H 	H 	0.00560 0.88950 0.42220 0.06100
H 	H 	0.91260 0.68330 0.48290 0.06700
H 	H 	0.01300 0.73240 0.54550 0.05200
H 	H 	0.12020 0.74320 0.35460 0.02100
H 	H 	0.23280 0.64690 0.31450 0.03600
H 	H 	0.84630 0.57990 0.38970 0.07200
H 	H 	0.96380 0.48320 0.35080 0.04500
H 	H 	0.90480 0.46970 0.21610 -0.03100
H 	H 	0.85780 0.26500 0.21250 -0.02800
H 	H 	0.77600 0.97030 0.59640 0.17000
H 	H 	0.89480 0.91470 0.59740 0.16100
H 	H 	0.96300 0.26020 0.86200 0.16700
H 	H 	0.88590 0.20190 0.83460 0.15900
H 	H 	0.90130 0.56200 0.98550 0.05100
H 	H 	0.99440 0.61050 0.92220 0.06100
H 	H 	0.08740 0.81670 0.98290 0.06700
H 	H 	0.98700 0.76760 0.04550 0.05200
H 	H 	0.87980 0.75680 0.85460 0.01900
H 	H 	0.76720 0.85310 0.81450 0.03800
H 	H 	0.15370 0.92010 0.88970 0.07000
H 	H 	0.03620 0.01680 0.85080 0.04800
H 	H 	0.09520 0.03030 0.71610 -0.03100
H 	H 	0.14220 0.23500 0.71250 -0.02800
H 	H 	0.27600 0.52970 0.90360 0.17000
H 	H 	0.39480 0.58530 0.90260 0.16100
H 	H 	0.46300 0.23980 0.63800 0.16800
H 	H 	0.38590 0.29810 0.66540 0.15900
H 	H 	0.40130 0.93800 0.51450 0.05200
H 	H 	0.49440 0.88950 0.57780 0.06100
H 	H 	0.58740 0.68330 0.51710 0.06600
H 	H 	0.48700 0.73240 0.45450 0.05200
H 	H 	0.37980 0.74320 0.64540 0.01900
H 	H 	0.26720 0.64690 0.68550 0.03900
H 	H 	0.65370 0.57990 0.61030 0.07000
H 	H 	0.53620 0.48320 0.64920 0.04800
H 	H 	0.59520 0.46970 0.78390 -0.03000
H 	H 	0.64220 0.26500 0.78750 -0.02900
C 	C 	0.38410 0.37710 0.06411 0.32800
C 	C 	0.43990 0.34160 0.02207 -0.08200
C 	C 	0.43950 0.38670 0.98504 0.00800
C 	C 	0.49430 0.35790 0.94726 -0.06300
C 	C 	0.54870 0.28220 0.94658 -0.00700
C 	C 	0.54910 0.23450 0.98337 -0.06000
C 	C 	0.49140 0.26460 0.02075 0.01000
C 	C 	0.52900 0.17120 0.87508 -0.02000
C 	C 	0.41320 0.19080 0.85330 -0.05000
C 	C 	0.34580 0.13310 0.82950 -0.01500
C 	C 	0.39270 0.05650 0.82781 -0.08300
C 	C 	0.57560 0.09380 0.87440 -0.06300
C 	C 	0.50580 0.03630 0.85090 0.00400
C 	C 	0.32790 0.99610 0.79743 0.33100
C 	C 	0.40000 0.00600 0.64311 0.21100
C 	C 	0.52450 0.97130 0.69606 0.09800
C 	C 	0.62320 0.75140 0.74132 0.10500
C 	C 	0.53450 0.74840 0.80366 0.19800
C 	C 	0.88410 0.12290 0.43589 0.32900
C 	C 	0.93990 0.15840 0.47793 -0.08300
C 	C 	0.93950 0.11330 0.51496 0.01000
C 	C 	0.99430 0.14210 0.55274 -0.06600
C 	C 	0.04870 0.21780 0.55342 -0.00400
C 	C 	0.04910 0.26550 0.51663 -0.06200
C 	C 	0.99140 0.23540 0.47925 0.01000
C 	C 	0.02900 0.32880 0.62492 -0.01200
C 	C 	0.91320 0.30920 0.64670 -0.05900
C 	C 	0.84580 0.36690 0.67050 -0.00700
C 	C 	0.89270 0.44350 0.67219 -0.09100
C 	C 	0.07560 0.40620 0.62560 -0.07100
C 	C 	0.00580 0.46370 0.64910 0.01400
C 	C 	0.82790 0.50390 0.70257 0.33500
C 	C 	0.90000 0.49400 0.85689 0.20900
C 	C 	0.02450 0.52870 0.80394 0.10100
C 	C 	0.12320 0.74860 0.75868 0.10500
C 	C 	0.03450 0.75160 0.69634 0.19900
C 	C 	0.11590 0.37710 0.93589 0.32900
C 	C 	0.06010 0.34160 0.97793 -0.08200
C 	C 	0.06050 0.38670 0.01496 0.00900
C 	C 	0.00570 0.35790 0.05274 -0.06500
C 	C 	0.95130 0.28220 0.05342 -0.00500
C 	C 	0.95090 0.23450 0.01663 -0.06200
C 	C 	0.00860 0.26460 0.97925 0.01100
C 	C 	0.97100 0.17120 0.12492 -0.01700
C 	C 	0.08680 0.19080 0.14670 -0.05400
C 	C 	0.15420 0.13310 0.17050 -0.01200
C 	C 	0.10730 0.05650 0.17219 -0.08500
C 	C 	0.92440 0.09380 0.12560 -0.06500
C 	C 	0.99420 0.03630 0.14910 0.00600
C 	C 	0.17210 0.99610 0.20257 0.33200
C 	C 	0.10000 0.00600 0.35689 0.21000
C 	C 	0.97550 0.97130 0.30394 0.10200
C 	C 	0.87680 0.75140 0.25868 0.10500
C 	C 	0.96550 0.74840 0.19634 0.20000
C 	C 	0.61590 0.12290 0.56411 0.32900
C 	C 	0.56010 0.15840 0.52207 -0.08200
C 	C 	0.56050 0.11330 0.48504 0.00800
C 	C 	0.50570 0.14210 0.44726 -0.06300
C 	C 	0.45130 0.21780 0.44658 -0.00700
C 	C 	0.45090 0.26550 0.48337 -0.06000
C 	C 	0.50860 0.23540 0.52075 0.01000
C 	C 	0.47100 0.32880 0.37508 -0.01900
C 	C 	0.58680 0.30920 0.35330 -0.05000
C 	C 	0.65420 0.36690 0.32950 -0.01400
C 	C 	0.60730 0.44350 0.32781 -0.08400
C 	C 	0.42440 0.40620 0.37440 -0.06400
C 	C 	0.49420 0.46370 0.35090 0.00500
C 	C 	0.67210 0.50390 0.29743 0.33300
C 	C 	0.60000 0.49400 0.14311 0.21100
C 	C 	0.47550 0.52870 0.19606 0.09800
C 	C 	0.37680 0.74860 0.24132 0.10500
C 	C 	0.46550 0.75160 0.30366 0.19800
C 	C 	0.61590 0.62290 0.93589 0.32800
C 	C 	0.56010 0.65840 0.97793 -0.08200
C 	C 	0.56050 0.61330 0.01496 0.00800
C 	C 	0.50570 0.64210 0.05274 -0.06300
C 	C 	0.45130 0.71780 0.05342 -0.00700
C 	C 	0.45090 0.76550 0.01663 -0.06000
C 	C 	0.50860 0.73540 0.97925 0.01000
C 	C 	0.47100 0.82880 0.12492 -0.02000
C 	C 	0.58680 0.80920 0.14670 -0.05000
C 	C 	0.65420 0.86690 0.17050 -0.01500
C 	C 	0.60730 0.94350 0.17219 -0.08300
C 	C 	0.42440 0.90620 0.12560 -0.06300
C 	C 	0.49420 0.96370 0.14910 0.00400
C 	C 	0.67210 0.00390 0.20257 0.33100
C 	C 	0.60000 0.99400 0.35689 0.21100
C 	C 	0.47550 0.02870 0.30394 0.09800
C 	C 	0.37680 0.24860 0.25868 0.10500
C 	C 	0.46550 0.25160 0.19634 0.19800
C 	C 	0.11590 0.87710 0.56411 0.32900
C 	C 	0.06010 0.84160 0.52207 -0.08300
C 	C 	0.06050 0.88670 0.48504 0.01000
C 	C 	0.00570 0.85790 0.44726 -0.06600
C 	C 	0.95130 0.78220 0.44658 -0.00400
C 	C 	0.95090 0.73450 0.48337 -0.06200
C 	C 	0.00860 0.76460 0.52075 0.01000
C 	C 	0.97100 0.67120 0.37508 -0.01200
C 	C 	0.08680 0.69080 0.35330 -0.05900
C 	C 	0.15420 0.63310 0.32950 -0.00700
C 	C 	0.10730 0.55650 0.32781 -0.09100
C 	C 	0.92440 0.59380 0.37440 -0.07100
C 	C 	0.99420 0.53630 0.35090 0.01400
C 	C 	0.17210 0.49610 0.29743 0.33500
C 	C 	0.10000 0.50600 0.14311 0.20900
C 	C 	0.97550 0.47130 0.19606 0.10100
C 	C 	0.87680 0.25140 0.24132 0.10500
C 	C 	0.96550 0.24840 0.30366 0.19900
C 	C 	0.88410 0.62290 0.06411 0.32900
C 	C 	0.93990 0.65840 0.02207 -0.08200
C 	C 	0.93950 0.61330 0.98504 0.00900
C 	C 	0.99430 0.64210 0.94726 -0.06500
C 	C 	0.04870 0.71780 0.94658 -0.00500
C 	C 	0.04910 0.76550 0.98337 -0.06200
C 	C 	0.99140 0.73540 0.02075 0.01100
C 	C 	0.02900 0.82880 0.87508 -0.01700
C 	C 	0.91320 0.80920 0.85330 -0.05400
C 	C 	0.84580 0.86690 0.82950 -0.01200
C 	C 	0.89270 0.94350 0.82781 -0.08500
C 	C 	0.07560 0.90620 0.87440 -0.06500
C 	C 	0.00580 0.96370 0.85090 0.00600
C 	C 	0.82790 0.00390 0.79743 0.33200
C 	C 	0.90000 0.99400 0.64311 0.21000
C 	C 	0.02450 0.02870 0.69606 0.10200
C 	C 	0.12320 0.24860 0.74132 0.10500
C 	C 	0.03450 0.25160 0.80366 0.20000
C 	C 	0.38410 0.87710 0.43589 0.32900
C 	C 	0.43990 0.84160 0.47793 -0.08200
C 	C 	0.43950 0.88670 0.51496 0.00800
C 	C 	0.49430 0.85790 0.55274 -0.06300
C 	C 	0.54870 0.78220 0.55342 -0.00700
C 	C 	0.54910 0.73450 0.51663 -0.06000
C 	C 	0.49140 0.76460 0.47925 0.01000
C 	C 	0.52900 0.67120 0.62492 -0.01900
C 	C 	0.41320 0.69080 0.64670 -0.05000
C 	C 	0.34580 0.63310 0.67050 -0.01400
C 	C 	0.39270 0.55650 0.67219 -0.08400
C 	C 	0.57560 0.59380 0.62560 -0.06400
C 	C 	0.50580 0.53630 0.64910 0.00500
C 	C 	0.32790 0.49610 0.70257 0.33300
C 	C 	0.40000 0.50600 0.85689 0.21100
C 	C 	0.52450 0.47130 0.80394 0.09800
C 	C 	0.62320 0.25140 0.75868 0.10500
C 	C 	0.53450 0.24840 0.69634 0.19800
S 	S 	0.63185 0.24744 0.89890 0.27300
S 	S 	0.13185 0.25256 0.60110 0.27100
S 	S 	0.86815 0.24744 0.10110 0.27200
S 	S 	0.36815 0.25256 0.39890 0.27300
S 	S 	0.36815 0.75256 0.10110 0.27300
S 	S 	0.86815 0.74744 0.39890 0.27100
S 	S 	0.13185 0.75256 0.89890 0.27200
S 	S 	0.63185 0.74744 0.60110 0.27300
N 	N 	0.51700 0.02520 0.66348 -0.30600
N 	N 	0.35100 0.04500 0.60808 -0.35200
N 	N 	0.33900 0.94300 0.66183 -0.28200
N 	N 	0.42170 0.92120 0.69652 -0.26100
N 	N 	0.51940 0.78360 0.76455 -0.30200
N 	N 	0.45100 0.76400 0.83753 -0.35000
N 	N 	0.63690 0.69700 0.80532 -0.27900
N 	N 	0.69360 0.69930 0.76388 -0.27000
N 	N 	0.01700 0.47480 0.83652 -0.30500
N 	N 	0.85100 0.45500 0.89192 -0.35200
N 	N 	0.83900 0.55700 0.83817 -0.28200
N 	N 	0.92170 0.57880 0.80348 -0.26300
N 	N 	0.01940 0.71640 0.73545 -0.30200
N 	N 	0.95100 0.73600 0.66247 -0.35100
N 	N 	0.13690 0.80300 0.69468 -0.27900
N 	N 	0.19360 0.80070 0.73612 -0.27000
N 	N 	0.98300 0.02520 0.33652 -0.30600
N 	N 	0.14900 0.04500 0.39192 -0.35200
N 	N 	0.16100 0.94300 0.33817 -0.28200
N 	N 	0.07830 0.92120 0.30348 -0.26300
N 	N 	0.98060 0.78360 0.23545 -0.30200
N 	N 	0.04900 0.76400 0.16247 -0.35200
N 	N 	0.86310 0.69700 0.19468 -0.27900
N 	N 	0.80640 0.69930 0.23612 -0.26900
N 	N 	0.48300 0.47480 0.16348 -0.30600
N 	N 	0.64900 0.45500 0.10808 -0.35200
N 	N 	0.66100 0.55700 0.16183 -0.28200
N 	N 	0.57830 0.57880 0.19652 -0.26100
N 	N 	0.48060 0.71640 0.26455 -0.30200
N 	N 	0.54900 0.73600 0.33753 -0.35000
N 	N 	0.36310 0.80300 0.30532 -0.27900
N 	N 	0.30640 0.80070 0.26388 -0.27000
N 	N 	0.48300 0.97480 0.33652 -0.30600
N 	N 	0.64900 0.95500 0.39192 -0.35200
N 	N 	0.66100 0.05700 0.33817 -0.28200
N 	N 	0.57830 0.07880 0.30348 -0.26100
N 	N 	0.48060 0.21640 0.23545 -0.30200
N 	N 	0.54900 0.23600 0.16247 -0.35000
N 	N 	0.36310 0.30300 0.19468 -0.27900
N 	N 	0.30640 0.30070 0.23612 -0.27000
N 	N 	0.98300 0.52520 0.16348 -0.30500
N 	N 	0.14900 0.54500 0.10808 -0.35200
N 	N 	0.16100 0.44300 0.16183 -0.28200
N 	N 	0.07830 0.42120 0.19652 -0.26300
N 	N 	0.98060 0.28360 0.26455 -0.30200
N 	N 	0.04900 0.26400 0.33753 -0.35100
N 	N 	0.86310 0.19700 0.30532 -0.27900
N 	N 	0.80640 0.19930 0.26388 -0.27000
N 	N 	0.01700 0.97480 0.66348 -0.30600
N 	N 	0.85100 0.95500 0.60808 -0.35200
N 	N 	0.83900 0.05700 0.66183 -0.28200
N 	N 	0.92170 0.07880 0.69652 -0.26300
N 	N 	0.01940 0.21640 0.76455 -0.30200
N 	N 	0.95100 0.23600 0.83753 -0.35200
N 	N 	0.13690 0.30300 0.80532 -0.27900
N 	N 	0.19360 0.30070 0.76388 -0.26900
N 	N 	0.51700 0.52520 0.83652 -0.30600
N 	N 	0.35100 0.54500 0.89192 -0.35200
N 	N 	0.33900 0.44300 0.83817 -0.28200
N 	N 	0.42170 0.42120 0.80348 -0.26100
N 	N 	0.51940 0.28360 0.73545 -0.30200
N 	N 	0.45100 0.26400 0.66247 -0.35000
N 	N 	0.63690 0.19700 0.69468 -0.27900
N 	N 	0.69360 0.19930 0.73612 -0.27000
O 	O 	0.34160 0.44640 0.06487 -0.34200
O 	O 	0.39010 0.33210 0.09795 -0.47400
O 	O 	0.63530 0.31370 0.86838 -0.24500
O 	O 	0.75550 0.20930 0.91202 -0.23100
O 	O 	0.24550 0.01850 0.77064 -0.33500
O 	O 	0.36980 0.92260 0.80134 -0.46900
O 	O 	0.84160 0.05360 0.43513 -0.34200
O 	O 	0.89010 0.16790 0.40205 -0.47400
O 	O 	0.13530 0.18630 0.63162 -0.24400
O 	O 	0.25550 0.29070 0.58798 -0.23000
O 	O 	0.74550 0.48150 0.72936 -0.33700
O 	O 	0.86980 0.57740 0.69866 -0.47000
O 	O 	0.15840 0.44640 0.93513 -0.34200
O 	O 	0.10990 0.33210 0.90205 -0.47400
O 	O 	0.86470 0.31370 0.13162 -0.24400
O 	O 	0.74450 0.20930 0.08798 -0.23100
O 	O 	0.25450 0.01850 0.22936 -0.33600
O 	O 	0.13020 0.92260 0.19866 -0.47000
O 	O 	0.65840 0.05360 0.56487 -0.34200
O 	O 	0.60990 0.16790 0.59795 -0.47400
O 	O 	0.36470 0.18630 0.36838 -0.24500
O 	O 	0.24450 0.29070 0.41202 -0.23100
O 	O 	0.75450 0.48150 0.27064 -0.33600
O 	O 	0.63020 0.57740 0.30134 -0.46900
O 	O 	0.65840 0.55360 0.93513 -0.34200
O 	O 	0.60990 0.66790 0.90205 -0.47400
O 	O 	0.36470 0.68630 0.13162 -0.24500
O 	O 	0.24450 0.79070 0.08798 -0.23100
O 	O 	0.75450 0.98150 0.22936 -0.33500
O 	O 	0.63020 0.07740 0.19866 -0.46900
O 	O 	0.15840 0.94640 0.56487 -0.34200
O 	O 	0.10990 0.83210 0.59795 -0.47400
O 	O 	0.86470 0.81370 0.36838 -0.24400
O 	O 	0.74450 0.70930 0.41202 -0.23000
O 	O 	0.25450 0.51850 0.27064 -0.33700
O 	O 	0.13020 0.42260 0.30134 -0.47000
O 	O 	0.84160 0.55360 0.06487 -0.34200
O 	O 	0.89010 0.66790 0.09795 -0.47400
O 	O 	0.13530 0.68630 0.86838 -0.24400
O 	O 	0.25550 0.79070 0.91202 -0.23100
O 	O 	0.74550 0.98150 0.77064 -0.33600
O 	O 	0.86980 0.07740 0.80134 -0.47000
O 	O 	0.34160 0.94640 0.43513 -0.34200
O 	O 	0.39010 0.83210 0.40205 -0.47400
O 	O 	0.63530 0.81370 0.63162 -0.24500
O 	O 	0.75550 0.70930 0.58798 -0.23100
O 	O 	0.24550 0.51850 0.72936 -0.33600
O 	O 	0.36980 0.42260 0.69866 -0.46900
