data_crystal

_cell_length_a 11.28940
_cell_length_b 11.28940
_cell_length_c 25.63600
_cell_angle_alpha 92.57650
_cell_angle_beta  92.57650
_cell_angle_gamma 101.38000

_symmetry_space_group_name_	'P 1'
_symmetry_space_group_name_H-M	'P 1'

loop_
_symmetry_equiv_pos_as_xyz
  x,y,z

loop_
_atom_site_label
_atom_site_type_symbol
_atom_site_fract_x
_atom_site_fract_y
_atom_site_fract_z
_atom_site_charge
Zn	Zn	0.84586 0.18200 0.49430 1.22800
Zn	Zn	0.81800 0.15414 0.00570 1.22600
Zn	Zn	0.15414 0.81800 0.50570 1.22800
Zn	Zn	0.18200 0.84586 0.99430 1.22600
H 	H 	0.09790 0.05730 0.59280 -0.00800
H 	H 	0.38180 0.63320 0.52560 0.06400
H 	H 	0.61530 0.60190 0.68240 0.14800
H 	H 	0.70680 0.57460 0.60510 -0.01800
H 	H 	0.65690 0.56070 0.44670 0.07900
H 	H 	0.22800 0.00140 0.65540 0.15600
H 	H 	0.68650 0.27550 0.39550 0.00700
H 	H 	0.46720 0.97320 0.86170 0.00600
H 	H 	0.73100 0.73520 0.53570 0.05500
H 	H 	0.17740 0.11760 0.76360 0.13900
H 	H 	0.21910 0.40490 0.63780 -0.02000
H 	H 	0.70240 0.22980 0.63580 -0.02600
H 	H 	0.13350 0.04150 0.84410 -0.01200
H 	H 	0.61020 0.25520 0.71300 0.15800
H 	H 	0.44820 0.90940 0.42180 0.07600
H 	H 	0.34560 0.34920 0.70150 0.16300
H 	H 	0.51080 0.04720 0.78090 0.14300
H 	H 	0.46270 0.76990 0.46460 0.08400
H 	H 	0.55270 0.73530 0.42460 0.08600
H 	H 	0.87170 0.92830 0.55690 0.04000
H 	H 	0.50800 0.21660 0.34700 0.07700
H 	H 	0.38230 0.03510 0.36350 0.01100
H 	H 	0.94270 0.90210 0.90720 -0.00800
H 	H 	0.36680 0.61820 0.97440 0.06300
H 	H 	0.39810 0.38470 0.81760 0.14700
H 	H 	0.42540 0.29320 0.89490 -0.01800
H 	H 	0.43930 0.34310 0.05330 0.07800
H 	H 	0.99860 0.77200 0.84460 0.15600
H 	H 	0.72450 0.31350 0.10450 0.00700
H 	H 	0.02680 0.53280 0.63830 0.00600
H 	H 	0.26480 0.26900 0.96430 0.05500
H 	H 	0.88240 0.82260 0.73640 0.13900
H 	H 	0.59510 0.78090 0.86220 -0.01900
H 	H 	0.77020 0.29760 0.86420 -0.02600
H 	H 	0.95850 0.86650 0.65590 -0.01200
H 	H 	0.74480 0.38980 0.78700 0.15800
H 	H 	0.09060 0.55180 0.07820 0.07200
H 	H 	0.65080 0.65440 0.79850 0.16200
H 	H 	0.95280 0.48920 0.71910 0.14200
H 	H 	0.23010 0.53730 0.03540 0.08500
H 	H 	0.26470 0.44730 0.07540 0.08600
H 	H 	0.07170 0.12830 0.94310 0.04100
H 	H 	0.78340 0.49200 0.15300 0.07500
H 	H 	0.96490 0.61770 0.13650 0.01400
H 	H 	0.90210 0.94270 0.40720 -0.00900
H 	H 	0.61820 0.36680 0.47440 0.06300
H 	H 	0.38470 0.39810 0.31760 0.14700
H 	H 	0.29320 0.42540 0.39490 -0.01900
H 	H 	0.34310 0.43930 0.55330 0.07800
H 	H 	0.77200 0.99860 0.34460 0.15500
H 	H 	0.31350 0.72450 0.60450 0.00600
H 	H 	0.53280 0.02680 0.13830 0.00500
H 	H 	0.26900 0.26480 0.46430 0.05500
H 	H 	0.82260 0.88240 0.23640 0.13900
H 	H 	0.78090 0.59510 0.36220 -0.02000
H 	H 	0.29760 0.77020 0.36420 -0.02600
H 	H 	0.86650 0.95850 0.15590 -0.01200
H 	H 	0.38980 0.74480 0.28700 0.15800
H 	H 	0.55180 0.09060 0.57820 0.07600
H 	H 	0.65440 0.65080 0.29850 0.16300
H 	H 	0.48920 0.95280 0.21910 0.14300
H 	H 	0.53730 0.23010 0.53540 0.08400
H 	H 	0.44730 0.26470 0.57540 0.08600
H 	H 	0.12830 0.07170 0.44310 0.04000
H 	H 	0.49200 0.78340 0.65300 0.07700
H 	H 	0.61770 0.96490 0.63650 0.01100
H 	H 	0.05730 0.09790 0.09280 -0.00800
H 	H 	0.63320 0.38180 0.02560 0.06300
H 	H 	0.60190 0.61530 0.18240 0.14700
H 	H 	0.57460 0.70680 0.10510 -0.01800
H 	H 	0.56070 0.65690 0.94670 0.07800
H 	H 	0.00140 0.22800 0.15540 0.15600
H 	H 	0.27550 0.68650 0.89550 0.00700
H 	H 	0.97320 0.46720 0.36170 0.00600
H 	H 	0.73520 0.73100 0.03570 0.05500
H 	H 	0.11760 0.17740 0.26360 0.13900
H 	H 	0.40490 0.21910 0.13780 -0.01900
H 	H 	0.22980 0.70240 0.13580 -0.02600
H 	H 	0.04150 0.13350 0.34410 -0.01200
H 	H 	0.25520 0.61020 0.21300 0.15800
H 	H 	0.90940 0.44820 0.92180 0.07200
H 	H 	0.34920 0.34560 0.20150 0.16200
H 	H 	0.04720 0.51080 0.28090 0.14200
H 	H 	0.76990 0.46270 0.96460 0.08500
H 	H 	0.73530 0.55270 0.92460 0.08600
H 	H 	0.92830 0.87170 0.05690 0.04100
H 	H 	0.21660 0.50800 0.84700 0.07500
H 	H 	0.03510 0.38230 0.86350 0.01400
C 	C 	0.29538 0.00002 0.86160 -0.18300
C 	C 	0.71432 0.39948 0.61268 -0.22000
C 	C 	0.34820 0.09020 0.76495 0.31400
C 	C 	0.14615 0.23645 0.60823 -0.21300
C 	C 	0.14870 0.11650 0.61423 0.18200
C 	C 	0.42980 0.57940 0.51505 -0.06300
C 	C 	0.60709 0.02171 0.44280 0.05800
C 	C 	0.06391 0.27109 0.56625 0.38700
C 	C 	0.63329 0.52711 0.67308 -0.30700
C 	C 	0.68783 0.51057 0.62685 0.18700
C 	C 	0.66533 0.95225 0.47910 0.06800
C 	C 	0.60551 0.43229 0.70532 0.32700
C 	C 	0.59320 0.53680 0.46818 -0.07500
C 	C 	0.22600 0.08260 0.65183 -0.31500
C 	C 	0.63780 0.20100 0.40088 0.08000
C 	C 	0.40874 0.00206 0.84203 0.16100
C 	C 	0.72560 0.80960 0.52265 -0.00800
C 	C 	0.29970 0.17050 0.68362 0.33000
C 	C 	0.23550 0.08850 0.78338 -0.30400
C 	C 	0.22050 0.32350 0.64125 0.18400
C 	C 	0.68490 0.30470 0.64524 0.18800
C 	C 	0.20980 0.04320 0.83156 0.16300
C 	C 	0.63010 0.31950 0.69149 -0.31900
C 	C 	0.49620 0.98420 0.41607 -0.11700
C 	C 	0.29670 0.29050 0.67916 -0.32400
C 	C 	0.43510 0.04650 0.79389 -0.28600
C 	C 	0.77600 0.38120 0.56322 0.39300
C 	C 	0.53780 0.74160 0.46147 -0.14100
C 	C 	0.52310 0.61710 0.48289 0.07400
C 	C 	0.80360 0.91680 0.53405 0.02000
C 	C 	0.53080 0.16720 0.37210 -0.13600
C 	C 	0.45780 0.05840 0.38120 0.05900
C 	C 	0.26431 0.95069 0.91299 0.33900
C 	C 	0.99998 0.70462 0.63840 -0.18400
C 	C 	0.60052 0.28568 0.88732 -0.22000
C 	C 	0.90980 0.65180 0.73505 0.31300
C 	C 	0.76355 0.85385 0.89177 -0.21200
C 	C 	0.88350 0.85130 0.88577 0.18100
C 	C 	0.42060 0.57020 0.98495 -0.06300
C 	C 	0.97829 0.39291 0.05720 0.05100
C 	C 	0.72891 0.93609 0.93375 0.38400
C 	C 	0.47289 0.36671 0.82692 -0.30700
C 	C 	0.48943 0.31217 0.87315 0.18700
C 	C 	0.04775 0.33467 0.02090 0.07100
C 	C 	0.56771 0.39449 0.79468 0.32700
C 	C 	0.46320 0.40680 0.03182 -0.07500
C 	C 	0.91740 0.77400 0.84817 -0.31500
C 	C 	0.79900 0.36220 0.09912 0.07700
C 	C 	0.99794 0.59126 0.65797 0.15800
C 	C 	0.19040 0.27440 0.97735 -0.00800
C 	C 	0.82950 0.70030 0.81638 0.32900
C 	C 	0.91150 0.76450 0.71662 -0.30300
C 	C 	0.67650 0.77950 0.85875 0.18300
C 	C 	0.69530 0.31510 0.85476 0.18800
C 	C 	0.95680 0.79020 0.66844 0.16300
C 	C 	0.68050 0.36990 0.80851 -0.31900
C 	C 	0.01580 0.50380 0.08393 -0.10700
C 	C 	0.70950 0.70330 0.82084 -0.32300
C 	C 	0.95350 0.56490 0.70611 -0.28400
C 	C 	0.61880 0.22400 0.93678 0.39200
C 	C 	0.25840 0.46220 0.03853 -0.14100
C 	C 	0.38290 0.47690 0.01711 0.07500
C 	C 	0.08320 0.19640 0.96595 0.01700
C 	C 	0.83280 0.46920 0.12790 -0.13100
C 	C 	0.94160 0.54220 0.11880 0.05000
C 	C 	0.04931 0.73569 0.58701 0.34000
C 	C 	0.70462 0.99998 0.13840 -0.18300
C 	C 	0.28568 0.60052 0.38732 -0.22000
C 	C 	0.65180 0.90980 0.23505 0.31400
C 	C 	0.85385 0.76355 0.39177 -0.21300
C 	C 	0.85130 0.88350 0.38577 0.18200
C 	C 	0.57020 0.42060 0.48495 -0.06300
C 	C 	0.39291 0.97829 0.55720 0.05800
C 	C 	0.93609 0.72891 0.43375 0.38700
C 	C 	0.36671 0.47289 0.32692 -0.30700
C 	C 	0.31217 0.48943 0.37315 0.18700
C 	C 	0.33467 0.04775 0.52090 0.06800
C 	C 	0.39449 0.56771 0.29468 0.32700
C 	C 	0.40680 0.46320 0.53182 -0.07500
C 	C 	0.77400 0.91740 0.34817 -0.31500
C 	C 	0.36220 0.79900 0.59912 0.08000
C 	C 	0.59126 0.99794 0.15797 0.16100
C 	C 	0.27440 0.19040 0.47735 -0.00800
C 	C 	0.70030 0.82950 0.31638 0.33000
C 	C 	0.76450 0.91150 0.21662 -0.30400
C 	C 	0.77950 0.67650 0.35875 0.18400
C 	C 	0.31510 0.69530 0.35476 0.18800
C 	C 	0.79020 0.95680 0.16844 0.16300
C 	C 	0.36990 0.68050 0.30851 -0.31900
C 	C 	0.50380 0.01580 0.58393 -0.11700
C 	C 	0.70330 0.70950 0.32084 -0.32400
C 	C 	0.56490 0.95350 0.20611 -0.28600
C 	C 	0.22400 0.61880 0.43678 0.39300
C 	C 	0.46220 0.25840 0.53853 -0.14100
C 	C 	0.47690 0.38290 0.51711 0.07400
C 	C 	0.19640 0.08320 0.46595 0.02000
C 	C 	0.46920 0.83280 0.62790 -0.13600
C 	C 	0.54220 0.94160 0.61880 0.05900
C 	C 	0.73569 0.04931 0.08701 0.33900
C 	C 	0.00002 0.29538 0.36160 -0.18400
C 	C 	0.39948 0.71432 0.11268 -0.22000
C 	C 	0.09020 0.34820 0.26495 0.31300
C 	C 	0.23645 0.14615 0.10823 -0.21200
C 	C 	0.11650 0.14870 0.11423 0.18100
C 	C 	0.57940 0.42980 0.01505 -0.06300
C 	C 	0.02171 0.60709 0.94280 0.05100
C 	C 	0.27109 0.06391 0.06625 0.38400
C 	C 	0.52711 0.63329 0.17308 -0.30700
C 	C 	0.51057 0.68783 0.12685 0.18700
C 	C 	0.95225 0.66533 0.97910 0.07100
C 	C 	0.43229 0.60551 0.20532 0.32700
C 	C 	0.53680 0.59320 0.96818 -0.07500
C 	C 	0.08260 0.22600 0.15183 -0.31500
C 	C 	0.20100 0.63780 0.90088 0.07700
C 	C 	0.00206 0.40874 0.34203 0.15800
C 	C 	0.80960 0.72560 0.02265 -0.00800
C 	C 	0.17050 0.29970 0.18362 0.32900
C 	C 	0.08850 0.23550 0.28338 -0.30300
C 	C 	0.32350 0.22050 0.14125 0.18300
C 	C 	0.30470 0.68490 0.14524 0.18800
C 	C 	0.04320 0.20980 0.33156 0.16300
C 	C 	0.31950 0.63010 0.19149 -0.31900
C 	C 	0.98420 0.49620 0.91607 -0.10700
C 	C 	0.29050 0.29670 0.17916 -0.32300
C 	C 	0.04650 0.43510 0.29389 -0.28400
C 	C 	0.38120 0.77600 0.06322 0.39200
C 	C 	0.74160 0.53780 0.96147 -0.14100
C 	C 	0.61710 0.52310 0.98289 0.07500
C 	C 	0.91680 0.80360 0.03405 0.01700
C 	C 	0.16720 0.53080 0.87210 -0.13100
C 	C 	0.05840 0.45780 0.88120 0.05000
C 	C 	0.95069 0.26431 0.41299 0.34000
N 	N 	0.67579 0.13181 0.43637 -0.20800
N 	N 	0.63728 0.83242 0.48810 -0.09400
N 	N 	0.76629 0.00495 0.50669 -0.23100
N 	N 	0.86819 0.32421 0.06363 -0.20700
N 	N 	0.16758 0.36272 0.01190 -0.09400
N 	N 	0.99505 0.23371 0.99331 -0.22900
N 	N 	0.32421 0.86819 0.56363 -0.20800
N 	N 	0.36272 0.16758 0.51190 -0.09400
N 	N 	0.23371 0.99505 0.49331 -0.23100
N 	N 	0.13181 0.67579 0.93637 -0.20700
N 	N 	0.83242 0.63728 0.98810 -0.09400
N 	N 	0.00495 0.76629 0.00669 -0.22900
O 	O 	0.83596 0.47282 0.54442 -0.24400
O 	O 	0.07898 0.37904 0.55513 -0.24900
O 	O 	0.38524 0.13876 0.71839 -0.32500
O 	O 	0.76005 0.27375 0.54460 -0.45000
O 	O 	0.98592 0.18518 0.54539 -0.43800
O 	O 	0.34132 0.91192 0.94131 -0.32400
O 	O 	0.15828 0.94378 0.92702 -0.40500
O 	O 	0.52718 0.16404 0.95558 -0.24300
O 	O 	0.62096 0.92102 0.94487 -0.24900
O 	O 	0.86124 0.61476 0.78161 -0.32400
O 	O 	0.72625 0.23995 0.95540 -0.44900
O 	O 	0.81482 0.01408 0.95461 -0.43400
O 	O 	0.08808 0.65868 0.55869 -0.32300
O 	O 	0.05622 0.84172 0.57298 -0.40400
O 	O 	0.16404 0.52718 0.45558 -0.24400
O 	O 	0.92102 0.62096 0.44487 -0.24900
O 	O 	0.61476 0.86124 0.28161 -0.32500
O 	O 	0.23995 0.72625 0.45540 -0.45000
O 	O 	0.01408 0.81482 0.45461 -0.43800
O 	O 	0.65868 0.08808 0.05869 -0.32400
O 	O 	0.84172 0.05622 0.07298 -0.40500
O 	O 	0.47282 0.83596 0.04442 -0.24300
O 	O 	0.37904 0.07898 0.05513 -0.24900
O 	O 	0.13876 0.38524 0.21839 -0.32400
O 	O 	0.27375 0.76005 0.04460 -0.44900
O 	O 	0.18518 0.98592 0.04539 -0.43400
O 	O 	0.91192 0.34132 0.44131 -0.32300
O 	O 	0.94378 0.15828 0.42702 -0.40400
O 	O 	0.54649 0.45351 0.75000 -0.33400
O 	O 	0.45351 0.54649 0.25000 -0.33400
