data_crystal

_cell_length_a 12.93050
_cell_length_b 13.79610
_cell_length_c 16.82950
_cell_angle_alpha 90.00000
_cell_angle_beta  90.00000
_cell_angle_gamma 90.00000

_symmetry_space_group_name_	'P 1'
_symmetry_space_group_name_H-M	'P 1'

loop_
_symmetry_equiv_pos_as_xyz
  x,y,z

loop_
_atom_site_label
_atom_site_type_symbol
_atom_site_fract_x
_atom_site_fract_y
_atom_site_fract_z
_atom_site_charge
Zn	Zn	0.47569 0.40730 0.42390 1.18700
Zn	Zn	0.42707 0.47793 0.09649 1.18500
Zn	Zn	0.52431 0.09270 0.92390 1.18600
Zn	Zn	0.57293 0.02207 0.59649 1.18500
Zn	Zn	0.97569 0.59270 0.07610 1.18400
Zn	Zn	0.92707 0.52207 0.40351 1.18400
Zn	Zn	0.02431 0.90730 0.57610 1.18200
Zn	Zn	0.07293 0.97793 0.90351 1.18200
Zn	Zn	0.52431 0.59270 0.57610 1.18600
Zn	Zn	0.57293 0.52207 0.90351 1.18400
Zn	Zn	0.47569 0.90730 0.07610 1.18500
Zn	Zn	0.42707 0.97793 0.40351 1.18400
Zn	Zn	0.02431 0.40730 0.92390 1.18400
Zn	Zn	0.07293 0.47793 0.59649 1.18400
Zn	Zn	0.97569 0.09270 0.42390 1.18200
Zn	Zn	0.92707 0.02207 0.09649 1.18200
H 	H 	0.24830 0.36260 0.50040 -0.04600
H 	H 	0.44480 0.19500 0.35280 -0.00900
H 	H 	0.32780 0.67010 0.64460 0.13500
H 	H 	0.21880 0.63270 0.66050 0.14400
H 	H 	0.58870 0.23790 0.62520 0.14600
H 	H 	0.56450 0.33360 0.58400 0.13200
H 	H 	0.75170 0.13740 0.00040 -0.04700
H 	H 	0.55520 0.30500 0.85280 -0.00900
H 	H 	0.67220 0.82990 0.14460 0.13600
H 	H 	0.78120 0.86730 0.16050 0.14500
H 	H 	0.41130 0.26210 0.12520 0.14700
H 	H 	0.43550 0.16640 0.08400 0.13300
H 	H 	0.74830 0.63740 0.99960 -0.04400
H 	H 	0.94480 0.80500 0.14720 -0.00900
H 	H 	0.82780 0.32990 0.85540 0.13600
H 	H 	0.71880 0.36730 0.83950 0.14400
H 	H 	0.08870 0.76210 0.87480 0.14500
H 	H 	0.06450 0.66640 0.91600 0.13000
H 	H 	0.25170 0.86260 0.49960 -0.04600
H 	H 	0.05520 0.69500 0.64720 -0.01000
H 	H 	0.17220 0.17010 0.35540 0.13700
H 	H 	0.28120 0.13270 0.33950 0.14500
H 	H 	0.91130 0.73790 0.37480 0.14700
H 	H 	0.93550 0.83360 0.41600 0.13400
H 	H 	0.75170 0.63740 0.49960 -0.04600
H 	H 	0.55520 0.80500 0.64720 -0.00900
H 	H 	0.67220 0.32990 0.35540 0.13500
H 	H 	0.78120 0.36730 0.33950 0.14400
H 	H 	0.41130 0.76210 0.37480 0.14600
H 	H 	0.43550 0.66640 0.41600 0.13200
H 	H 	0.24830 0.86260 0.99960 -0.04700
H 	H 	0.44480 0.69500 0.14720 -0.00900
H 	H 	0.32780 0.17010 0.85540 0.13600
H 	H 	0.21880 0.13270 0.83950 0.14500
H 	H 	0.58870 0.73790 0.87480 0.14700
H 	H 	0.56450 0.83360 0.91600 0.13300
H 	H 	0.25170 0.36260 0.00040 -0.04400
H 	H 	0.05520 0.19500 0.85280 -0.00900
H 	H 	0.17220 0.67010 0.14460 0.13600
H 	H 	0.28120 0.63270 0.16050 0.14400
H 	H 	0.91130 0.23790 0.12520 0.14500
H 	H 	0.93550 0.33360 0.08400 0.13000
H 	H 	0.74830 0.13740 0.50040 -0.04600
H 	H 	0.94480 0.30500 0.35280 -0.01000
H 	H 	0.82780 0.82990 0.64460 0.13700
H 	H 	0.71880 0.86730 0.66050 0.14500
H 	H 	0.08870 0.26210 0.62520 0.14700
H 	H 	0.06450 0.16640 0.58400 0.13400
C 	C 	0.42310 0.50620 0.27720 0.20400
C 	C 	0.47370 0.40870 0.25320 0.24400
C 	C 	0.29840 0.54750 0.58980 0.18500
C 	C 	0.27800 0.41910 0.52320 0.10000
C 	C 	0.52760 0.22120 0.52090 0.18400
C 	C 	0.47060 0.18800 0.40530 0.08700
C 	C 	0.57690 0.99380 0.77720 0.20600
C 	C 	0.52630 0.09130 0.75320 0.24200
C 	C 	0.70160 0.95250 0.08980 0.18800
C 	C 	0.72200 0.08090 0.02320 0.09900
C 	C 	0.47240 0.27880 0.02090 0.18500
C 	C 	0.52940 0.31200 0.90530 0.08700
C 	C 	0.92310 0.49380 0.22280 0.20400
C 	C 	0.97370 0.59130 0.24680 0.24200
C 	C 	0.79840 0.45250 0.91020 0.18600
C 	C 	0.77800 0.58090 0.97680 0.10000
C 	C 	0.02760 0.77880 0.97910 0.17800
C 	C 	0.97060 0.81200 0.09470 0.08700
C 	C 	0.07690 0.00620 0.72280 0.21600
C 	C 	0.02630 0.90870 0.74680 0.22300
C 	C 	0.20160 0.04750 0.41020 0.19000
C 	C 	0.22200 0.91910 0.47680 0.09800
C 	C 	0.97240 0.72120 0.47910 0.18900
C 	C 	0.02940 0.68800 0.59470 0.08500
C 	C 	0.57690 0.49380 0.72280 0.20400
C 	C 	0.52630 0.59130 0.74680 0.24400
C 	C 	0.70160 0.45250 0.41020 0.18500
C 	C 	0.72200 0.58090 0.47680 0.10000
C 	C 	0.47240 0.77880 0.47910 0.18400
C 	C 	0.52940 0.81200 0.59470 0.08700
C 	C 	0.42310 0.00620 0.22280 0.20600
C 	C 	0.47370 0.90870 0.24680 0.24200
C 	C 	0.29840 0.04750 0.91020 0.18800
C 	C 	0.27800 0.91910 0.97680 0.09900
C 	C 	0.52760 0.72120 0.97910 0.18500
C 	C 	0.47060 0.68800 0.09470 0.08700
C 	C 	0.07690 0.50620 0.77720 0.20400
C 	C 	0.02630 0.40870 0.75320 0.24200
C 	C 	0.20160 0.54750 0.08980 0.18600
C 	C 	0.22200 0.41910 0.02320 0.10000
C 	C 	0.97240 0.22120 0.02090 0.17800
C 	C 	0.02940 0.18800 0.90530 0.08700
C 	C 	0.92310 0.99380 0.27720 0.21600
C 	C 	0.97370 0.09130 0.25320 0.22300
C 	C 	0.79840 0.95250 0.58980 0.19000
C 	C 	0.77800 0.08090 0.52320 0.09800
C 	C 	0.02760 0.27880 0.52090 0.18900
C 	C 	0.97060 0.31200 0.40530 0.08500
N 	N 	0.22560 0.47850 0.57350 -0.30300
N 	N 	0.37230 0.44670 0.50930 -0.25700
N 	N 	0.38640 0.53170 0.55280 -0.27300
N 	N 	0.27940 0.62610 0.63730 -0.32200
N 	N 	0.48710 0.10400 0.43960 -0.26300
N 	N 	0.52440 0.12360 0.51530 -0.26200
N 	N 	0.49420 0.26320 0.45280 -0.28800
N 	N 	0.56450 0.26980 0.58390 -0.31900
N 	N 	0.77440 0.02150 0.07350 -0.30600
N 	N 	0.62770 0.05330 0.00930 -0.25700
N 	N 	0.61360 0.96830 0.05280 -0.27400
N 	N 	0.72060 0.87390 0.13730 -0.32300
N 	N 	0.51290 0.39600 0.93960 -0.26300
N 	N 	0.47560 0.37640 0.01530 -0.26200
N 	N 	0.50580 0.23680 0.95280 -0.28900
N 	N 	0.43550 0.23020 0.08390 -0.32000
N 	N 	0.72560 0.52150 0.92650 -0.30300
N 	N 	0.87230 0.55330 0.99070 -0.25400
N 	N 	0.88640 0.46830 0.94720 -0.27200
N 	N 	0.77940 0.37390 0.86270 -0.32200
N 	N 	0.98710 0.89600 0.06040 -0.25900
N 	N 	0.02440 0.87640 0.98470 -0.26600
N 	N 	0.99420 0.73680 0.04720 -0.28700
N 	N 	0.06450 0.73020 0.91610 -0.31800
N 	N 	0.27440 0.97850 0.42650 -0.30700
N 	N 	0.12770 0.94670 0.49070 -0.26000
N 	N 	0.11360 0.03170 0.44720 -0.27000
N 	N 	0.22060 0.12610 0.36270 -0.32300
N 	N 	0.01290 0.60400 0.56040 -0.26400
N 	N 	0.97560 0.62360 0.48470 -0.26200
N 	N 	0.00580 0.76320 0.54720 -0.29300
N 	N 	0.93550 0.76980 0.41610 -0.32100
N 	N 	0.77440 0.52150 0.42650 -0.30300
N 	N 	0.62770 0.55330 0.49070 -0.25700
N 	N 	0.61360 0.46830 0.44720 -0.27300
N 	N 	0.72060 0.37390 0.36270 -0.32200
N 	N 	0.51290 0.89600 0.56040 -0.26300
N 	N 	0.47560 0.87640 0.48470 -0.26200
N 	N 	0.50580 0.73680 0.54720 -0.28800
N 	N 	0.43550 0.73020 0.41610 -0.31900
N 	N 	0.22560 0.97850 0.92650 -0.30600
N 	N 	0.37230 0.94670 0.99070 -0.25700
N 	N 	0.38640 0.03170 0.94720 -0.27400
N 	N 	0.27940 0.12610 0.86270 -0.32300
N 	N 	0.48710 0.60400 0.06040 -0.26300
N 	N 	0.52440 0.62360 0.98470 -0.26200
N 	N 	0.49420 0.76320 0.04720 -0.28900
N 	N 	0.56450 0.76980 0.91610 -0.32000
N 	N 	0.27440 0.47850 0.07350 -0.30300
N 	N 	0.12770 0.44670 0.00930 -0.25400
N 	N 	0.11360 0.53170 0.05280 -0.27200
N 	N 	0.22060 0.62610 0.13730 -0.32200
N 	N 	0.01290 0.10400 0.93960 -0.25900
N 	N 	0.97560 0.12360 0.01530 -0.26600
N 	N 	0.00580 0.26320 0.95280 -0.28700
N 	N 	0.93550 0.26980 0.08390 -0.31800
N 	N 	0.72560 0.02150 0.57350 -0.30700
N 	N 	0.87230 0.05330 0.50930 -0.26000
N 	N 	0.88640 0.96830 0.55280 -0.27000
N 	N 	0.77940 0.87390 0.63730 -0.32300
N 	N 	0.98710 0.39600 0.43960 -0.26400
N 	N 	0.02440 0.37640 0.51530 -0.26200
N 	N 	0.99420 0.23680 0.45280 -0.29300
N 	N 	0.06450 0.23020 0.58390 -0.32100
O 	O 	0.48440 0.39110 0.18150 -0.43700
O 	O 	0.39500 0.55860 0.22080 -0.34800
O 	O 	0.50190 0.35430 0.30900 -0.40500
O 	O 	0.41550 0.52230 0.35020 -0.39800
O 	O 	0.51560 0.10890 0.68150 -0.43600
O 	O 	0.60500 0.94140 0.72080 -0.34800
O 	O 	0.49810 0.14570 0.80900 -0.40500
O 	O 	0.58450 0.97770 0.85020 -0.39700
O 	O 	0.98440 0.60890 0.31850 -0.43600
O 	O 	0.89500 0.44140 0.27920 -0.34900
O 	O 	0.00190 0.64570 0.19100 -0.40400
O 	O 	0.91550 0.47770 0.14980 -0.40000
O 	O 	0.01560 0.89110 0.81850 -0.43500
O 	O 	0.10500 0.05860 0.77920 -0.34900
O 	O 	0.99810 0.85430 0.69100 -0.39100
O 	O 	0.08450 0.02230 0.64980 -0.39800
O 	O 	0.51560 0.60890 0.81850 -0.43700
O 	O 	0.60500 0.44140 0.77920 -0.34800
O 	O 	0.49810 0.64570 0.69100 -0.40500
O 	O 	0.58450 0.47770 0.64980 -0.39800
O 	O 	0.48440 0.89110 0.31850 -0.43600
O 	O 	0.39500 0.05860 0.27920 -0.34800
O 	O 	0.50190 0.85430 0.19100 -0.40500
O 	O 	0.41550 0.02230 0.14980 -0.39700
O 	O 	0.01560 0.39110 0.68150 -0.43600
O 	O 	0.10500 0.55860 0.72080 -0.34900
O 	O 	0.99810 0.35430 0.80900 -0.40400
O 	O 	0.08450 0.52230 0.85020 -0.40000
O 	O 	0.98440 0.10890 0.18150 -0.43500
O 	O 	0.89500 0.94140 0.22080 -0.34900
O 	O 	0.00190 0.14570 0.30900 -0.39100
O 	O 	0.91550 0.97770 0.35020 -0.39800
