data_crystal

_cell_length_a 13.00940
_cell_length_b 13.80330
_cell_length_c 16.82810
_cell_angle_alpha 90.00000
_cell_angle_beta  90.00000
_cell_angle_gamma 90.00000

_symmetry_space_group_name_	'P 1'
_symmetry_space_group_name_H-M	'P 1'

loop_
_symmetry_equiv_pos_as_xyz
  x,y,z

loop_
_atom_site_label
_atom_site_type_symbol
_atom_site_fract_x
_atom_site_fract_y
_atom_site_fract_z
_atom_site_charge
Zn	Zn	0.42561 0.97787 0.40449 1.18400
Zn	Zn	0.47683 0.90730 0.07598 1.18600
Zn	Zn	0.57439 0.52213 0.90449 1.18300
Zn	Zn	0.52317 0.59270 0.57598 1.18500
Zn	Zn	0.92561 0.02213 0.09551 1.18100
Zn	Zn	0.97683 0.09270 0.42402 1.18300
Zn	Zn	0.07439 0.47787 0.59551 1.18300
Zn	Zn	0.02317 0.40730 0.92402 1.18500
Zn	Zn	0.57439 0.02213 0.59551 1.18300
Zn	Zn	0.52317 0.09270 0.92402 1.18500
Zn	Zn	0.42561 0.47787 0.09551 1.18300
Zn	Zn	0.47683 0.40730 0.42402 1.18500
Zn	Zn	0.07439 0.97787 0.90449 1.18100
Zn	Zn	0.02317 0.90730 0.57598 1.18300
Zn	Zn	0.92561 0.52213 0.40449 1.18300
Zn	Zn	0.97683 0.59270 0.07598 1.18500
H 	H 	0.25100 0.86580 0.50220 -0.05100
H 	H 	0.44630 0.19520 0.35480 -0.01300
H 	H 	0.17250 0.16740 0.35590 0.14700
H 	H 	0.27910 0.13240 0.34140 0.15600
H 	H 	0.58620 0.23760 0.62440 0.16100
H 	H 	0.56470 0.33130 0.58370 0.14500
H 	H 	0.74900 0.63420 0.00220 -0.05300
H 	H 	0.55370 0.30480 0.85480 -0.01300
H 	H 	0.82750 0.33260 0.85590 0.14500
H 	H 	0.72090 0.36760 0.84140 0.15400
H 	H 	0.41380 0.26240 0.12440 0.16200
H 	H 	0.43530 0.16870 0.08370 0.14600
H 	H 	0.75100 0.13420 0.99780 -0.05000
H 	H 	0.94630 0.80480 0.14520 -0.01200
H 	H 	0.67250 0.83260 0.14410 0.14500
H 	H 	0.77910 0.86760 0.15860 0.15500
H 	H 	0.08620 0.76240 0.87560 0.16100
H 	H 	0.06470 0.66870 0.91630 0.14400
H 	H 	0.24900 0.36580 0.49780 -0.05100
H 	H 	0.05370 0.69520 0.64520 -0.01300
H 	H 	0.32750 0.66740 0.64410 0.14500
H 	H 	0.22090 0.63240 0.65860 0.15400
H 	H 	0.91380 0.73760 0.37560 0.16200
H 	H 	0.93530 0.83130 0.41630 0.14700
H 	H 	0.74900 0.13420 0.49780 -0.05100
H 	H 	0.55370 0.80480 0.64520 -0.01300
H 	H 	0.82750 0.83260 0.64410 0.14700
H 	H 	0.72090 0.86760 0.65860 0.15600
H 	H 	0.41380 0.76240 0.37560 0.16100
H 	H 	0.43530 0.66870 0.41630 0.14500
H 	H 	0.25100 0.36580 0.99780 -0.05300
H 	H 	0.44630 0.69520 0.14520 -0.01300
H 	H 	0.17250 0.66740 0.14410 0.14500
H 	H 	0.27910 0.63240 0.15860 0.15400
H 	H 	0.58620 0.73760 0.87560 0.16200
H 	H 	0.56470 0.83130 0.91630 0.14600
H 	H 	0.24900 0.86580 0.00220 -0.05000
H 	H 	0.05370 0.19520 0.85480 -0.01200
H 	H 	0.32750 0.16740 0.85590 0.14500
H 	H 	0.22090 0.13240 0.84140 0.15500
H 	H 	0.91380 0.23760 0.12440 0.16100
H 	H 	0.93530 0.33130 0.08370 0.14400
H 	H 	0.75100 0.63420 0.50220 -0.05100
H 	H 	0.94630 0.30480 0.35480 -0.01300
H 	H 	0.67250 0.33260 0.35590 0.14500
H 	H 	0.77910 0.36760 0.34140 0.15400
H 	H 	0.08620 0.26240 0.62440 0.16200
H 	H 	0.06470 0.16870 0.58370 0.14700
C 	C 	0.46840 0.91030 0.24570 0.24400
C 	C 	0.42240 0.00820 0.22229 0.21000
C 	C 	0.20220 0.04740 0.41150 0.19500
C 	C 	0.22180 0.92040 0.47909 0.10500
C 	C 	0.52710 0.22026 0.52009 0.19400
C 	C 	0.47110 0.18821 0.40631 0.09300
C 	C 	0.53160 0.58970 0.74570 0.24600
C 	C 	0.57760 0.49180 0.72229 0.20800
C 	C 	0.79780 0.45260 0.91150 0.19000
C 	C 	0.77820 0.57960 0.97909 0.11000
C 	C 	0.47290 0.27974 0.02009 0.19400
C 	C 	0.52890 0.31179 0.90631 0.09300
C 	C 	0.96840 0.08970 0.25430 0.23900
C 	C 	0.92240 0.99180 0.27771 0.21500
C 	C 	0.70220 0.95260 0.08850 0.19300
C 	C 	0.72180 0.07960 0.02091 0.10400
C 	C 	0.02710 0.77974 0.97991 0.18900
C 	C 	0.97110 0.81179 0.09369 0.09400
C 	C 	0.03160 0.41030 0.75430 0.24600
C 	C 	0.07760 0.50820 0.77771 0.20800
C 	C 	0.29780 0.54740 0.58850 0.19000
C 	C 	0.27820 0.42040 0.52091 0.10600
C 	C 	0.97290 0.72026 0.47991 0.19800
C 	C 	0.02890 0.68821 0.59369 0.09200
C 	C 	0.53160 0.08970 0.75430 0.24400
C 	C 	0.57760 0.99180 0.77771 0.21000
C 	C 	0.79780 0.95260 0.58850 0.19500
C 	C 	0.77820 0.07960 0.52091 0.10500
C 	C 	0.47290 0.77974 0.47991 0.19400
C 	C 	0.52890 0.81179 0.59369 0.09300
C 	C 	0.46840 0.41030 0.25430 0.24600
C 	C 	0.42240 0.50820 0.27771 0.20800
C 	C 	0.20220 0.54740 0.08850 0.19000
C 	C 	0.22180 0.42040 0.02091 0.11000
C 	C 	0.52710 0.72026 0.97991 0.19400
C 	C 	0.47110 0.68821 0.09369 0.09300
C 	C 	0.03160 0.91030 0.74570 0.23900
C 	C 	0.07760 0.00820 0.72229 0.21500
C 	C 	0.29780 0.04740 0.91150 0.19300
C 	C 	0.27820 0.92040 0.97909 0.10400
C 	C 	0.97290 0.22026 0.02009 0.18900
C 	C 	0.02890 0.18821 0.90631 0.09400
C 	C 	0.96840 0.58970 0.24570 0.24600
C 	C 	0.92240 0.49180 0.22229 0.20800
C 	C 	0.70220 0.45260 0.41150 0.19000
C 	C 	0.72180 0.57960 0.47909 0.10600
C 	C 	0.02710 0.27974 0.52009 0.19800
C 	C 	0.97110 0.31179 0.40631 0.09200
N 	N 	0.27289 0.97924 0.42902 -0.30900
N 	N 	0.12737 0.94755 0.49200 -0.26100
N 	N 	0.11361 0.03145 0.44798 -0.27100
N 	N 	0.22010 0.12530 0.36370 -0.34500
N 	N 	0.52300 0.12401 0.51552 -0.26600
N 	N 	0.48595 0.10416 0.44006 -0.26500
N 	N 	0.49511 0.26319 0.45302 -0.29400
N 	N 	0.56380 0.26900 0.58381 -0.34300
N 	N 	0.72711 0.52076 0.92902 -0.30600
N 	N 	0.87263 0.55245 0.99200 -0.25700
N 	N 	0.88639 0.46855 0.94798 -0.27400
N 	N 	0.77990 0.37470 0.86370 -0.34400
N 	N 	0.47700 0.37599 0.01552 -0.26600
N 	N 	0.51405 0.39584 0.94006 -0.26600
N 	N 	0.50489 0.23681 0.95302 -0.29500
N 	N 	0.43620 0.23100 0.08381 -0.34300
N 	N 	0.77289 0.02076 0.07098 -0.30800
N 	N 	0.62737 0.05245 0.00800 -0.25800
N 	N 	0.61361 0.96855 0.05202 -0.27400
N 	N 	0.72010 0.87470 0.13630 -0.34500
N 	N 	0.02300 0.87599 0.98448 -0.26900
N 	N 	0.98595 0.89584 0.05994 -0.26200
N 	N 	0.99511 0.73681 0.04698 -0.29200
N 	N 	0.06380 0.73100 0.91619 -0.34200
N 	N 	0.22711 0.47924 0.57098 -0.30600
N 	N 	0.37263 0.44755 0.50800 -0.25800
N 	N 	0.38639 0.53145 0.55202 -0.27400
N 	N 	0.27990 0.62530 0.63630 -0.34400
N 	N 	0.97700 0.62401 0.48448 -0.26600
N 	N 	0.01405 0.60416 0.55994 -0.26600
N 	N 	0.00489 0.76319 0.54698 -0.29700
N 	N 	0.93620 0.76900 0.41619 -0.34400
N 	N 	0.72711 0.02076 0.57098 -0.30900
N 	N 	0.87263 0.05245 0.50800 -0.26100
N 	N 	0.88639 0.96855 0.55202 -0.27100
N 	N 	0.77990 0.87470 0.63630 -0.34500
N 	N 	0.47700 0.87599 0.48448 -0.26600
N 	N 	0.51405 0.89584 0.55994 -0.26500
N 	N 	0.50489 0.73681 0.54698 -0.29400
N 	N 	0.43620 0.73100 0.41619 -0.34300
N 	N 	0.27289 0.47924 0.07098 -0.30600
N 	N 	0.12737 0.44755 0.00800 -0.25700
N 	N 	0.11361 0.53145 0.05202 -0.27400
N 	N 	0.22010 0.62530 0.13630 -0.34400
N 	N 	0.52300 0.62401 0.98448 -0.26600
N 	N 	0.48595 0.60416 0.05994 -0.26600
N 	N 	0.49511 0.76319 0.04698 -0.29500
N 	N 	0.56380 0.76900 0.91619 -0.34300
N 	N 	0.22711 0.97924 0.92902 -0.30800
N 	N 	0.37263 0.94755 0.99200 -0.25800
N 	N 	0.38639 0.03145 0.94798 -0.27400
N 	N 	0.27990 0.12530 0.86370 -0.34500
N 	N 	0.97700 0.12401 0.01552 -0.26900
N 	N 	0.01405 0.10416 0.94006 -0.26200
N 	N 	0.00489 0.26319 0.95302 -0.29200
N 	N 	0.93620 0.26900 0.08381 -0.34200
N 	N 	0.77289 0.52076 0.42902 -0.30600
N 	N 	0.62737 0.55245 0.49200 -0.25800
N 	N 	0.61361 0.46855 0.44798 -0.27400
N 	N 	0.72010 0.37470 0.36370 -0.34400
N 	N 	0.02300 0.37599 0.51552 -0.26600
N 	N 	0.98595 0.39584 0.44006 -0.26600
N 	N 	0.99511 0.23681 0.45302 -0.29700
N 	N 	0.06380 0.23100 0.58381 -0.34400
O 	O 	0.47620 0.89111 0.31791 -0.44000
O 	O 	0.39460 0.06039 0.27832 -0.34600
O 	O 	0.49770 0.85581 0.19134 -0.41100
O 	O 	0.41820 0.02452 0.14953 -0.39800
O 	O 	0.52380 0.60889 0.81791 -0.44100
O 	O 	0.60540 0.43961 0.77832 -0.34700
O 	O 	0.50230 0.64419 0.69134 -0.41100
O 	O 	0.58180 0.47548 0.64953 -0.39900
O 	O 	0.97620 0.10889 0.18209 -0.44100
O 	O 	0.89460 0.93961 0.22168 -0.34700
O 	O 	0.99770 0.14419 0.30866 -0.41200
O 	O 	0.91820 0.97548 0.35047 -0.39700
O 	O 	0.02380 0.39111 0.68209 -0.44000
O 	O 	0.10540 0.56039 0.72168 -0.34700
O 	O 	0.00230 0.35581 0.80866 -0.41100
O 	O 	0.08180 0.52452 0.85047 -0.40000
O 	O 	0.52380 0.10889 0.68209 -0.44000
O 	O 	0.60540 0.93961 0.72168 -0.34600
O 	O 	0.50230 0.14419 0.80866 -0.41100
O 	O 	0.58180 0.97548 0.85047 -0.39800
O 	O 	0.47620 0.39111 0.18209 -0.44100
O 	O 	0.39460 0.56039 0.22168 -0.34700
O 	O 	0.49770 0.35581 0.30866 -0.41100
O 	O 	0.41820 0.52452 0.35047 -0.39900
O 	O 	0.02380 0.89111 0.81791 -0.44100
O 	O 	0.10540 0.06039 0.77832 -0.34700
O 	O 	0.00230 0.85581 0.69134 -0.41200
O 	O 	0.08180 0.02452 0.64953 -0.39700
O 	O 	0.97620 0.60889 0.31791 -0.44000
O 	O 	0.89460 0.43961 0.27832 -0.34700
O 	O 	0.99770 0.64419 0.19134 -0.41100
O 	O 	0.91820 0.47548 0.14953 -0.40000
