data_crystal

_cell_length_a 6.57212
_cell_length_b 10.94200
_cell_length_c 10.94420
_cell_angle_alpha 75.79830
_cell_angle_beta  72.59910
_cell_angle_gamma 72.63480

_symmetry_space_group_name_	'P 1'
_symmetry_space_group_name_H-M	'P 1'

loop_
_symmetry_equiv_pos_as_xyz
  x,y,z

loop_
_atom_site_label
_atom_site_type_symbol
_atom_site_fract_x
_atom_site_fract_y
_atom_site_fract_z
_atom_site_charge
Al	Al	0.25393 0.75633 0.24865 2.41800
Al	Al	0.75298 0.75634 0.24936 2.41600
H 	H 	0.02401 0.37545 0.23624 0.07700
H 	H 	0.14448 0.14276 0.22861 0.07600
H 	H 	0.98259 0.75858 0.63147 0.00600
H 	H 	0.86217 0.76695 0.86418 0.00900
H 	H 	0.63738 0.75997 0.63182 0.03900
H 	H 	0.51684 0.76867 0.86444 0.04000
H 	H 	0.36872 0.37449 0.23606 0.04700
H 	H 	0.48980 0.14130 0.22863 0.04900
H 	H 	0.50611 0.87384 0.13200 0.42700
H 	H 	0.00410 0.63995 0.36768 0.44300
C 	C 	0.90560 0.32512 0.23594 -0.02200
C 	C 	0.97483 0.19190 0.23132 -0.03600
C 	C 	0.10134 0.75915 0.68134 0.05000
C 	C 	0.03220 0.76424 0.81449 0.06300
C 	C 	0.46851 0.76002 0.68152 0.01200
C 	C 	0.39959 0.76505 0.81471 0.02100
C 	C 	0.53809 0.32447 0.23594 0.01500
C 	C 	0.60766 0.19103 0.23126 0.00200
C 	C 	0.82581 0.12242 0.23220 -0.10000
C 	C 	0.68535 0.39261 0.24111 -0.12200
C 	C 	0.89572 0.97923 0.23689 0.47200
C 	C 	0.61150 0.53388 0.24840 0.52700
C 	C 	0.18105 0.76548 0.88315 -0.15000
C 	C 	0.32087 0.75577 0.61324 -0.13800
C 	C 	0.11044 0.76371 0.02578 0.59300
C 	C 	0.39441 0.75109 0.47150 0.54600
O 	O 	0.40908 0.59198 0.25021 -0.67600
O 	O 	0.09652 0.92053 0.23930 -0.63600
O 	O 	0.59646 0.75014 0.41373 -0.69100
O 	O 	0.91051 0.76072 0.08493 -0.72300
O 	O 	0.25174 0.75036 0.41289 -0.67600
O 	O 	0.25405 0.76342 0.08405 -0.68700
O 	O 	0.75404 0.59195 0.25107 -0.68600
O 	O 	0.75066 0.92064 0.23973 -0.67900
O 	O 	0.00311 0.70369 0.30394 -1.15400
O 	O 	0.50128 0.81097 0.19776 -1.17200
