data_crystal

_cell_length_a 6.67333
_cell_length_b 11.12840
_cell_length_c 11.12850
_cell_angle_alpha 70.25770
_cell_angle_beta  72.55360
_cell_angle_gamma 72.55600

_symmetry_space_group_name_	'P 1'
_symmetry_space_group_name_H-M	'P 1'

loop_
_symmetry_equiv_pos_as_xyz
  x,y,z

loop_
_atom_site_label
_atom_site_type_symbol
_atom_site_fract_x
_atom_site_fract_y
_atom_site_fract_z
_atom_site_charge
Al	Al	0.00576 0.49828 0.99709 2.38600
Al	Al	0.50564 0.49834 0.99703 2.38900
H 	H 	0.62291 0.11156 0.00419 0.02200
H 	H 	0.88827 0.49157 0.38362 0.08300
H 	H 	0.76792 0.50575 0.61020 0.04300
H 	H 	0.74332 0.88496 0.99005 0.06300
H 	H 	0.38832 0.88487 0.99038 0.07100
H 	H 	0.12278 0.50574 0.61027 0.00400
H 	H 	0.24313 0.49157 0.38368 0.04600
H 	H 	0.26790 0.11147 0.00452 0.02300
H 	H 	0.75606 0.62151 0.87345 0.48500
H 	H 	0.25607 0.37476 0.12038 0.34400
C 	C 	0.79036 0.06351 0.00166 0.34500
C 	C 	0.72083 0.49408 0.43171 0.00100
C 	C 	0.65109 0.50312 0.56219 0.02000
C 	C 	0.86014 0.93301 0.99264 -0.25300
C 	C 	0.22091 0.93295 0.99282 -0.34500
C 	C 	0.29025 0.50313 0.56222 0.01200
C 	C 	0.35999 0.49409 0.43174 -0.00800
C 	C 	0.15112 0.06345 0.00184 0.31400
C 	C 	0.93440 0.13151 0.00659 -0.19700
C 	C 	0.86159 0.27366 0.01004 0.62800
C 	C 	0.57701 0.48907 0.36371 -0.07600
C 	C 	0.64987 0.48538 0.22166 0.49600
C 	C 	0.43435 0.50794 0.63026 -0.14700
C 	C 	0.36160 0.51136 0.77240 0.50900
C 	C 	0.07713 0.86496 0.98776 -0.06500
C 	C 	0.15001 0.72288 0.98412 0.45300
O 	O 	0.00314 0.33217 0.00966 -0.61200
O 	O 	0.50810 0.48577 0.16316 -0.54300
O 	O 	0.16175 0.51091 0.83094 -0.79500
O 	O 	0.34970 0.66442 0.98447 -0.77400
O 	O 	0.00823 0.66440 0.98451 -0.81400
O 	O 	0.50320 0.51092 0.83091 -0.77000
O 	O 	0.84956 0.48574 0.16319 -0.50800
O 	O 	0.66174 0.33223 0.00954 -0.55700
O 	O 	0.75586 0.55434 0.94094 -1.34300
O 	O 	0.25600 0.44212 0.05312 -0.93000
