data_crystal

_cell_length_a 6.61250
_cell_length_b 11.03370
_cell_length_c 11.03370
_cell_angle_alpha 70.36120
_cell_angle_beta  72.56350
_cell_angle_gamma 72.56350

_symmetry_space_group_name_	'P 1'
_symmetry_space_group_name_H-M	'P 1'

loop_
_symmetry_equiv_pos_as_xyz
  x,y,z

loop_
_atom_site_label
_atom_site_type_symbol
_atom_site_fract_x
_atom_site_fract_y
_atom_site_fract_z
_atom_site_charge
Al	Al	0.75000 0.75000 0.25000 2.40000
Al	Al	0.25000 0.75000 0.25000 2.40300
H 	H 	0.32828 0.36105 0.28793 0.04700
H 	H 	0.46341 0.11839 0.25963 0.05000
H 	H 	0.67172 0.71207 0.63895 0.03400
H 	H 	0.53659 0.74037 0.88161 0.03900
H 	H 	0.97726 0.71207 0.63895 -0.00200
H 	H 	0.84143 0.74037 0.88161 0.00600
H 	H 	0.02274 0.36105 0.28793 0.08100
H 	H 	0.15857 0.11839 0.25963 0.08000
C 	C 	0.50670 0.30880 0.28180 0.01200
C 	C 	0.58370 0.17050 0.26570 0.00500
C 	C 	0.49330 0.71820 0.69120 0.01400
C 	C 	0.41630 0.73430 0.82950 0.02700
C 	C 	0.09730 0.71820 0.69120 0.05900
C 	C 	0.01990 0.73430 0.82950 0.07600
C 	C 	0.90270 0.30880 0.28180 -0.03200
C 	C 	0.98010 0.17050 0.26570 -0.04200
C 	C 	0.80540 0.12840 0.26080 -0.09600
C 	C 	0.68140 0.35060 0.28660 -0.12000
C 	C 	0.87890 0.98990 0.25230 0.43800
C 	C 	0.61400 0.49420 0.27780 0.48700
C 	C 	0.19460 0.73920 0.87160 -0.16100
C 	C 	0.31860 0.71340 0.64940 -0.14400
C 	C 	0.12110 0.74770 0.01010 0.57800
C 	C 	0.38600 0.72220 0.50580 0.50300
O 	O 	0.72760 0.57600 0.27160 -0.61300
O 	O 	0.07410 0.92300 0.25340 -0.58700
O 	O 	0.27240 0.72840 0.42400 -0.59400
O 	O 	0.92590 0.74660 0.07700 -0.69300
O 	O 	0.57520 0.72840 0.42400 -0.61200
O 	O 	0.25050 0.74660 0.07700 -0.64800
O 	O 	0.42480 0.57600 0.27160 -0.59600
O 	O 	0.74950 0.92300 0.25340 -0.63300
O 	O 	-0.00000 0.69210 0.30790 -0.86600
O 	O 	0.50000 0.80730 0.19270 -0.90000
