data_crystal

_cell_length_a 9.93120
_cell_length_b 13.96110
_cell_length_c 13.96110
_cell_angle_alpha 104.07400
_cell_angle_beta  94.01460
_cell_angle_gamma 94.01460

_symmetry_space_group_name_	'P 1'
_symmetry_space_group_name_H-M	'P 1'

loop_
_symmetry_equiv_pos_as_xyz
  x,y,z

loop_
_atom_site_label
_atom_site_type_symbol
_atom_site_fract_x
_atom_site_fract_y
_atom_site_fract_z
_atom_site_charge
Zn	Zn	0.60504 0.23651 0.69254 1.21600
Zn	Zn	0.89496 0.30746 0.76349 1.21500
Zn	Zn	0.39496 0.76349 0.30746 1.21600
Zn	Zn	0.10504 0.69254 0.23651 1.21500
H 	H 	0.98640 0.40420 0.47220 0.03100
H 	H 	0.92720 0.41570 0.30270 0.06900
H 	H 	0.50340 0.26470 0.19090 0.06900
H 	H 	0.46450 0.25390 0.01490 0.03300
H 	H 	0.45580 0.03560 0.62440 -0.00700
H 	H 	0.34930 0.29260 0.60960 -0.01400
H 	H 	0.24300 0.96120 0.55820 0.10800
H 	H 	0.13560 0.22780 0.54400 0.11100
H 	H 	0.96200 0.09070 0.49550 0.06700
H 	H 	0.51360 0.52780 0.59580 0.03100
H 	H 	0.57280 0.69730 0.58430 0.06900
H 	H 	0.99660 0.80910 0.73530 0.07000
H 	H 	0.03550 0.98510 0.74610 0.03200
H 	H 	0.04420 0.37560 0.96440 -0.00600
H 	H 	0.15070 0.39040 0.70740 -0.01400
H 	H 	0.25700 0.44180 0.03880 0.10800
H 	H 	0.36440 0.45600 0.77220 0.11100
H 	H 	0.53800 0.50450 0.90930 0.06900
H 	H 	0.01360 0.59580 0.52780 0.03100
H 	H 	0.07280 0.58430 0.69730 0.06900
H 	H 	0.49660 0.73530 0.80910 0.06900
H 	H 	0.53550 0.74610 0.98510 0.03300
H 	H 	0.54420 0.96440 0.37560 -0.00700
H 	H 	0.65070 0.70740 0.39040 -0.01400
H 	H 	0.75700 0.03880 0.44180 0.10800
H 	H 	0.86440 0.77220 0.45600 0.11100
H 	H 	0.03800 0.90930 0.50450 0.06700
H 	H 	0.48640 0.47220 0.40420 0.03100
H 	H 	0.42720 0.30270 0.41570 0.06900
H 	H 	0.00340 0.19090 0.26470 0.07000
H 	H 	0.96450 0.01490 0.25390 0.03200
H 	H 	0.95580 0.62440 0.03560 -0.00600
H 	H 	0.84930 0.60960 0.29260 -0.01400
H 	H 	0.74300 0.55820 0.96120 0.10800
H 	H 	0.63560 0.54400 0.22780 0.11100
H 	H 	0.46200 0.49550 0.09070 0.06900
C 	C 	0.82060 0.27949 0.55725 0.37100
C 	C 	0.82810 0.29993 0.45961 -0.11200
C 	C 	0.91360 0.36688 0.43130 0.03000
C 	C 	0.87950 0.37337 0.33307 -0.09200
C 	C 	0.76830 0.31054 0.28732 0.00900
C 	C 	0.70520 0.29578 0.18682 0.00900
C 	C 	0.57230 0.27411 0.15147 -0.09000
C 	C 	0.54970 0.26745 0.04983 0.03100
C 	C 	0.66700 0.28303 0.00761 -0.10400
C 	C 	0.69000 0.28182 0.90358 0.38900
C 	C 	0.38970 0.07524 0.60976 0.11300
C 	C 	0.32700 0.22508 0.60102 0.11700
C 	C 	0.26090 0.02948 0.56992 -0.19000
C 	C 	0.19770 0.18691 0.56157 -0.19800
C 	C 	0.16180 0.08631 0.54849 0.14900
C 	C 	0.02220 0.04650 0.50882 -0.08400
C 	C 	0.67940 0.44275 0.72051 0.37100
C 	C 	0.67190 0.54039 0.70007 -0.11200
C 	C 	0.58640 0.56870 0.63312 0.03000
C 	C 	0.62050 0.66693 0.62663 -0.09200
C 	C 	0.73170 0.71268 0.68946 0.00900
C 	C 	0.79480 0.81318 0.70422 0.01000
C 	C 	0.92770 0.84853 0.72589 -0.09100
C 	C 	0.95030 0.95017 0.73255 0.03300
C 	C 	0.83300 0.99239 0.71697 -0.10400
C 	C 	0.81000 0.09642 0.71818 0.38800
C 	C 	0.11030 0.39024 0.92476 0.11300
C 	C 	0.17300 0.39898 0.77492 0.11700
C 	C 	0.23910 0.43008 0.97052 -0.19000
C 	C 	0.30230 0.43843 0.81309 -0.19800
C 	C 	0.33820 0.45151 0.91369 0.14900
C 	C 	0.47780 0.49118 0.95350 -0.08600
C 	C 	0.17940 0.72051 0.44275 0.37100
C 	C 	0.17190 0.70007 0.54039 -0.11200
C 	C 	0.08640 0.63312 0.56870 0.03000
C 	C 	0.12050 0.62663 0.66693 -0.09200
C 	C 	0.23170 0.68946 0.71268 0.00900
C 	C 	0.29480 0.70422 0.81318 0.00900
C 	C 	0.42770 0.72589 0.84853 -0.09000
C 	C 	0.45030 0.73255 0.95017 0.03100
C 	C 	0.33300 0.71697 0.99239 -0.10400
C 	C 	0.31000 0.71818 0.09642 0.38900
C 	C 	0.61030 0.92476 0.39024 0.11300
C 	C 	0.67300 0.77492 0.39898 0.11700
C 	C 	0.73910 0.97052 0.43008 -0.19000
C 	C 	0.80230 0.81309 0.43843 -0.19800
C 	C 	0.83820 0.91369 0.45151 0.14900
C 	C 	0.97780 0.95350 0.49118 -0.08400
C 	C 	0.32060 0.55725 0.27949 0.37100
C 	C 	0.32810 0.45961 0.29993 -0.11200
C 	C 	0.41360 0.43130 0.36688 0.03000
C 	C 	0.37950 0.33307 0.37337 -0.09200
C 	C 	0.26830 0.28732 0.31054 0.00900
C 	C 	0.20520 0.18682 0.29578 0.01000
C 	C 	0.07230 0.15147 0.27411 -0.09100
C 	C 	0.04970 0.04983 0.26745 0.03300
C 	C 	0.16700 0.00761 0.28303 -0.10400
C 	C 	0.19000 0.90358 0.28182 0.38800
C 	C 	0.88970 0.60976 0.07524 0.11300
C 	C 	0.82700 0.60102 0.22508 0.11700
C 	C 	0.76090 0.56992 0.02948 -0.19000
C 	C 	0.69770 0.56157 0.18691 -0.19800
C 	C 	0.66180 0.54849 0.08631 0.14900
C 	C 	0.52220 0.50882 0.04650 -0.08600
S 	S 	0.70493 0.24320 0.36520 0.02200
S 	S 	0.80592 0.30664 0.09380 0.03600
S 	S 	0.79507 0.63480 0.75680 0.02200
S 	S 	0.69408 0.90620 0.69336 0.03600
S 	S 	0.29507 0.75680 0.63480 0.02200
S 	S 	0.19408 0.69336 0.90620 0.03600
S 	S 	0.20493 0.36520 0.24320 0.02200
S 	S 	0.30592 0.09380 0.30664 0.03600
N 	N 	0.42180 0.17180 0.62756 -0.26900
N 	N 	0.07820 0.37244 0.82820 -0.26900
N 	N 	0.57820 0.82820 0.37244 -0.26900
N 	N 	0.92180 0.62756 0.17180 -0.26900
O 	O 	0.58778 0.27224 0.84200 -0.45000
O 	O 	0.81241 0.29040 0.88656 -0.46500
O 	O 	0.71782 0.22704 0.56978 -0.45500
O 	O 	0.91753 0.31717 0.62249 -0.45100
O 	O 	0.91222 0.15800 0.72776 -0.45100
O 	O 	0.68759 0.11344 0.70960 -0.46400
O 	O 	0.78218 0.43022 0.77296 -0.45500
O 	O 	0.58247 0.37751 0.68283 -0.45000
O 	O 	0.41222 0.72776 0.15800 -0.45000
O 	O 	0.18759 0.70960 0.11344 -0.46500
O 	O 	0.28218 0.77296 0.43022 -0.45500
O 	O 	0.08247 0.68283 0.37751 -0.45100
O 	O 	0.08778 0.84200 0.27224 -0.45100
O 	O 	0.31241 0.88656 0.29040 -0.46400
O 	O 	0.21782 0.56978 0.22704 -0.45500
O 	O 	0.41753 0.62249 0.31717 -0.45000
