data_crystal

_cell_length_a 4.73300
_cell_length_b 17.30500
_cell_length_c 19.24300
_cell_angle_alpha 90.00000
_cell_angle_beta  90.00000
_cell_angle_gamma 90.00000

_symmetry_space_group_name_	'P 1'
_symmetry_space_group_name_H-M	'P 1'

loop_
_symmetry_equiv_pos_as_xyz
  x,y,z

loop_
_atom_site_label
_atom_site_type_symbol
_atom_site_fract_x
_atom_site_fract_y
_atom_site_fract_z
_atom_site_charge
Na	Na	0.96910 0.67610 0.54980 0.58400
Na	Na	0.53090 0.32390 0.04980 0.58500
Na	Na	0.03090 0.17610 0.95020 0.58400
Na	Na	0.46910 0.82390 0.45020 0.58500
P 	P 	0.99270 0.44757 0.10162 0.46200
P 	P 	0.50730 0.55243 0.60162 0.46500
P 	P 	0.00730 0.94757 0.39838 0.46300
P 	P 	0.49270 0.05243 0.89838 0.46500
H 	H 	0.77000 0.79000 0.23300 0.17600
H 	H 	0.77000 0.81000 0.31100 0.15100
H 	H 	0.08000 0.60600 0.22800 0.09000
H 	H 	0.76000 0.59200 0.39500 0.01600
H 	H 	0.22000 0.51400 0.41300 0.06200
H 	H 	0.77000 0.50700 0.48600 0.15300
H 	H 	0.21000 0.47800 0.29700 0.04400
H 	H 	0.01000 0.35200 0.39000 0.17000
H 	H 	0.63000 0.43400 0.31900 0.06400
H 	H 	0.56000 0.46100 0.20300 0.07000
H 	H 	0.79000 0.37600 0.22000 0.04100
H 	H 	0.73000 0.21000 0.73300 0.17800
H 	H 	0.73000 0.19000 0.81100 0.15300
H 	H 	0.42000 0.39400 0.72800 0.09100
H 	H 	0.74000 0.40800 0.89500 0.01500
H 	H 	0.28000 0.48600 0.91300 0.06300
H 	H 	0.73000 0.49300 0.98600 0.15300
H 	H 	0.29000 0.52200 0.79700 0.04400
H 	H 	0.49000 0.64800 0.89000 0.17000
H 	H 	0.87000 0.56600 0.81900 0.06200
H 	H 	0.94000 0.53900 0.70300 0.06900
H 	H 	0.71000 0.62400 0.72000 0.04100
H 	H 	0.23000 0.29000 0.26700 0.17700
H 	H 	0.23000 0.31000 0.18900 0.15200
H 	H 	0.92000 0.10600 0.27200 0.09100
H 	H 	0.24000 0.09200 0.10500 0.01600
H 	H 	0.78000 0.01400 0.08700 0.06200
H 	H 	0.23000 0.00700 0.01400 0.15300
H 	H 	0.79000 0.97800 0.20300 0.04400
H 	H 	0.99000 0.85200 0.11000 0.17000
H 	H 	0.37000 0.93400 0.18100 0.06400
H 	H 	0.44000 0.96100 0.29700 0.07000
H 	H 	0.21000 0.87600 0.28000 0.04100
H 	H 	0.27000 0.71000 0.76700 0.17800
H 	H 	0.27000 0.69000 0.68900 0.15300
H 	H 	0.58000 0.89400 0.77200 0.09100
H 	H 	0.26000 0.90800 0.60500 0.01500
H 	H 	0.72000 0.98600 0.58700 0.06300
H 	H 	0.27000 0.99300 0.51400 0.15200
H 	H 	0.71000 0.02200 0.70300 0.04500
H 	H 	0.51000 0.14800 0.61000 0.17000
H 	H 	0.13000 0.06600 0.68100 0.06200
H 	H 	0.06000 0.03900 0.79700 0.06900
H 	H 	0.29000 0.12400 0.78000 0.04100
C 	C 	0.19270 0.68300 0.37900 0.28200
C 	C 	0.47750 0.73480 0.29170 0.16000
C 	C 	0.35360 0.68540 0.24160 0.03300
C 	C 	0.15300 0.63460 0.26280 0.01200
C 	C 	0.86980 0.57460 0.35840 0.11100
C 	C 	0.01770 0.50560 0.39240 0.01400
C 	C 	0.04850 0.45190 0.33010 0.08900
C 	C 	0.76300 0.46250 0.29550 0.01100
C 	C 	0.73870 0.44000 0.21990 0.01200
C 	C 	0.30730 0.31700 0.87900 0.28200
C 	C 	0.02250 0.26520 0.79170 0.15800
C 	C 	0.14640 0.31460 0.74160 0.03300
C 	C 	0.34700 0.36540 0.76280 0.01200
C 	C 	0.63020 0.42540 0.85840 0.11900
C 	C 	0.48230 0.49440 0.89240 0.00700
C 	C 	0.45150 0.54810 0.83010 0.08800
C 	C 	0.73700 0.53750 0.79550 0.01400
C 	C 	0.76130 0.56000 0.71990 0.01100
C 	C 	0.80730 0.18300 0.12100 0.28200
C 	C 	0.52250 0.23480 0.20830 0.16000
C 	C 	0.64640 0.18540 0.25840 0.03300
C 	C 	0.84700 0.13460 0.23720 0.01200
C 	C 	0.13020 0.07460 0.14160 0.11100
C 	C 	0.98230 0.00560 0.10760 0.01400
C 	C 	0.95150 0.95190 0.16990 0.08800
C 	C 	0.23700 0.96250 0.20450 0.01200
C 	C 	0.26130 0.94000 0.28010 0.01200
C 	C 	0.69270 0.81700 0.62100 0.28200
C 	C 	0.97750 0.76520 0.70830 0.15800
C 	C 	0.85360 0.81460 0.75840 0.03300
C 	C 	0.65300 0.86540 0.73720 0.01200
C 	C 	0.36980 0.92540 0.64160 0.11900
C 	C 	0.51770 0.99440 0.60760 0.00700
C 	C 	0.54850 0.04810 0.66990 0.08800
C 	C 	0.26300 0.03750 0.70450 0.01400
C 	C 	0.23870 0.06000 0.78010 0.01200
Br	Br	0.47650 0.68664 0.14870 -0.17200
Br	Br	0.02350 0.31336 0.64870 -0.17200
Br	Br	0.52350 0.18664 0.35130 -0.17200
Br	Br	0.97650 0.81336 0.85130 -0.17200
N 	N 	0.07750 0.63210 0.33100 -0.15100
N 	N 	0.39560 0.73310 0.35790 -0.21900
N 	N 	0.68820 0.78410 0.27500 -0.28700
N 	N 	0.42250 0.36790 0.83100 -0.15300
N 	N 	0.10440 0.26690 0.85790 -0.21900
N 	N 	0.81180 0.21590 0.77500 -0.28500
N 	N 	0.92250 0.13210 0.16900 -0.15100
N 	N 	0.60440 0.23310 0.14210 -0.21900
N 	N 	0.31180 0.28410 0.22500 -0.28700
N 	N 	0.57750 0.86790 0.66900 -0.15300
N 	N 	0.89560 0.76690 0.64210 -0.21900
N 	N 	0.18820 0.71590 0.72500 -0.28500
O 	O 	0.11380 0.68080 0.44020 -0.35600
O 	O 	0.82990 0.46910 0.43960 -0.19900
O 	O 	0.11030 0.37380 0.34450 -0.24900
O 	O 	0.70770 0.54490 0.30310 -0.17700
O 	O 	0.94920 0.47890 0.17910 -0.21100
O 	O 	0.71620 0.45310 0.06310 -0.28300
O 	O 	0.11800 0.36880 0.10420 -0.33700
O 	O 	0.20450 0.50910 0.07190 -0.17000
O 	O 	0.38620 0.31920 0.94020 -0.35800
O 	O 	0.67010 0.53090 0.93960 -0.19600
O 	O 	0.38970 0.62620 0.84450 -0.24800
O 	O 	0.79230 0.45510 0.80310 -0.17800
O 	O 	0.55080 0.52110 0.67910 -0.20900
O 	O 	0.78380 0.54690 0.56310 -0.28500
O 	O 	0.38200 0.63120 0.60420 -0.33700
O 	O 	0.29550 0.49090 0.57190 -0.17100
O 	O 	0.88620 0.18080 0.05980 -0.35600
O 	O 	0.17010 0.96910 0.06040 -0.19900
O 	O 	0.88970 0.87380 0.15550 -0.24900
O 	O 	0.29230 0.04490 0.19690 -0.17700
O 	O 	0.05080 0.97890 0.32090 -0.21100
O 	O 	0.28380 0.95310 0.43690 -0.28300
O 	O 	0.88200 0.86880 0.39580 -0.33700
O 	O 	0.79550 0.00910 0.42810 -0.17100
O 	O 	0.61380 0.81920 0.55980 -0.35800
O 	O 	0.32990 0.03090 0.56040 -0.19600
O 	O 	0.61030 0.12620 0.65550 -0.24800
O 	O 	0.20770 0.95510 0.69690 -0.17800
O 	O 	0.44920 0.02110 0.82090 -0.20900
O 	O 	0.21620 0.04690 0.93690 -0.28500
O 	O 	0.61800 0.13120 0.89580 -0.33700
O 	O 	0.70450 0.99090 0.92810 -0.17100
