data_crystal

_cell_length_a 5.73280
_cell_length_b 10.91520
_cell_length_c 11.26650
_cell_angle_alpha 90.00000
_cell_angle_beta  97.10600
_cell_angle_gamma 90.00000

_symmetry_space_group_name_	'P 1'
_symmetry_space_group_name_H-M	'P 1'

loop_
_symmetry_equiv_pos_as_xyz
  x,y,z

loop_
_atom_site_label
_atom_site_type_symbol
_atom_site_fract_x
_atom_site_fract_y
_atom_site_fract_z
_atom_site_charge
Na	Na	0.77200 0.90558 0.74548 0.61300
Na	Na	0.02409 0.59468 0.76522 0.60400
Na	Na	0.27200 0.09442 0.74548 0.60600
Na	Na	0.52409 0.40532 0.76522 0.60800
H 	H 	0.75990 0.54150 0.04570 0.15500
H 	H 	0.61170 0.62860 0.12240 0.14000
H 	H 	0.02690 0.65510 0.17000 -0.04900
H 	H 	0.04050 0.70170 0.03680 -0.02400
H 	H 	0.92460 0.70630 0.38940 0.01400
H 	H 	0.75860 0.77500 0.47210 0.01400
H 	H 	0.15680 0.88530 0.38470 0.16200
H 	H 	0.98980 0.95490 0.46680 0.19900
H 	H 	0.18400 0.91600 0.89800 0.70000
H 	H 	0.07400 0.01400 0.92800 0.65900
H 	H 	0.60900 0.59400 0.61200 0.56700
H 	H 	0.70300 0.51200 0.56900 0.53500
H 	H 	0.25990 0.45850 0.04570 0.10600
H 	H 	0.11170 0.37140 0.12240 0.09200
H 	H 	0.52690 0.34490 0.17000 0.03800
H 	H 	0.54050 0.29830 0.03680 0.05800
H 	H 	0.42460 0.29370 0.38940 0.01800
H 	H 	0.25860 0.22500 0.47210 0.01600
H 	H 	0.65680 0.11470 0.38470 0.14200
H 	H 	0.48980 0.04510 0.46680 0.13900
H 	H 	0.68400 0.08400 0.89800 0.70900
H 	H 	0.57400 0.98600 0.92800 0.67900
H 	H 	0.10900 0.40600 0.61200 0.54800
H 	H 	0.20300 0.48800 0.56900 0.52200
C 	C 	0.71620 0.62780 0.05870 -0.36400
C 	C 	0.93990 0.70020 0.10220 0.15000
C 	C 	0.85710 0.78680 0.40680 0.08600
C 	C 	0.05570 0.87410 0.44900 -0.46900
C 	C 	0.21620 0.37220 0.05870 -0.24200
C 	C 	0.43990 0.29980 0.10220 -0.03800
C 	C 	0.35710 0.21320 0.40680 0.01900
C 	C 	0.55570 0.12590 0.44900 -0.34300
S 	S 	0.55708 0.68535 0.92415 0.57400
S 	S 	0.89874 0.85686 0.14969 -0.03900
S 	S 	0.67117 0.84017 0.27364 -0.04900
S 	S 	0.22768 0.81676 0.57943 0.60200
S 	S 	0.05708 0.31465 0.92415 0.41300
S 	S 	0.39874 0.14314 0.14969 -0.03000
S 	S 	0.17117 0.15983 0.27364 -0.07100
S 	S 	0.72768 0.18324 0.57943 0.57000
O 	O 	0.40400 0.58456 0.87786 -0.36900
O 	O 	0.73130 0.71614 0.84467 -0.35300
O 	O 	0.42400 0.79128 0.95658 -0.38400
O 	O 	0.06360 0.78428 0.66323 -0.38700
O 	O 	0.38980 0.91483 0.62452 -0.36400
O 	O 	0.35230 0.71000 0.53982 -0.35600
O 	O 	0.09350 0.96640 0.88078 -1.42100
O 	O 	0.69350 0.54154 0.62980 -1.15600
O 	O 	0.90400 0.41544 0.87786 -0.29800
O 	O 	0.23130 0.28386 0.84467 -0.34600
O 	O 	0.92400 0.20872 0.95658 -0.31000
O 	O 	0.56360 0.21572 0.66323 -0.36100
O 	O 	0.88980 0.08517 0.62452 -0.33100
O 	O 	0.85230 0.29000 0.53982 -0.32500
O 	O 	0.59350 0.03360 0.88078 -1.41900
O 	O 	0.19350 0.45846 0.62980 -1.15900
