data_crystal

_cell_length_a 15.06660
_cell_length_b 15.77060
_cell_length_c 15.77060
_cell_angle_alpha 76.81030
_cell_angle_beta  61.46610
_cell_angle_gamma 61.46610

_symmetry_space_group_name_	'P 1'
_symmetry_space_group_name_H-M	'P 1'

loop_
_symmetry_equiv_pos_as_xyz
  x,y,z

loop_
_atom_site_label
_atom_site_type_symbol
_atom_site_fract_x
_atom_site_fract_y
_atom_site_fract_z
_atom_site_charge
Zn	Zn	0.25000 0.00000 -0.00000 1.22000
Zn	Zn	0.75000 0.00000 -0.00000 1.22300
Si	Si	-0.00000 0.00000 -0.00000 2.45700
Si	Si	0.50000 0.00000 -0.00000 2.80300
H 	H 	0.23760 0.16790 0.07690 0.04100
H 	H 	0.15480 0.33550 0.07950 0.08100
H 	H 	0.48240 0.83210 0.92310 0.08500
H 	H 	0.56980 0.66450 0.92050 0.08400
H 	H 	0.31450 0.92310 0.16790 0.02600
H 	H 	0.23430 0.92050 0.33550 0.12300
H 	H 	0.40550 0.07690 0.83210 0.08700
H 	H 	0.49030 0.07950 0.66450 0.07700
H 	H 	0.01760 0.07690 0.16790 -0.02700
H 	H 	0.93020 0.07950 0.33550 0.25000
H 	H 	0.26240 0.92310 0.83210 0.08500
H 	H 	0.34520 0.92050 0.66450 0.07600
H 	H 	0.09450 0.16790 0.92310 0.03700
H 	H 	0.00970 0.33550 0.92050 0.07700
H 	H 	0.18550 0.83210 0.07690 0.07100
H 	H 	0.26570 0.66450 0.07950 0.06200
H 	H 	0.76240 0.83210 0.92310 0.09600
H 	H 	0.84520 0.66450 0.92050 0.06900
H 	H 	0.51760 0.16790 0.07690 0.05100
H 	H 	0.43020 0.33550 0.07950 0.06400
H 	H 	0.68550 0.07690 0.83210 0.10800
H 	H 	0.76570 0.07950 0.66450 0.03600
H 	H 	0.59450 0.92310 0.16790 0.05500
H 	H 	0.50970 0.92050 0.33550 0.07600
H 	H 	0.98240 0.92310 0.83210 0.14500
H 	H 	0.06980 0.92050 0.66450 -0.05600
H 	H 	0.73760 0.07690 0.16790 0.05900
H 	H 	0.65480 0.07950 0.33550 0.07500
H 	H 	0.90550 0.83210 0.07690 0.10500
H 	H 	0.99030 0.66450 0.07950 0.07400
H 	H 	0.81450 0.16790 0.92310 0.07000
H 	H 	0.73430 0.33550 0.92050 0.08500
C 	C 	0.19040 0.20260 0.04500 0.06600
C 	C 	0.14160 0.30240 0.04660 -0.14300
C 	C 	0.43800 0.79740 0.95500 0.16800
C 	C 	0.49060 0.69760 0.95340 0.03700
C 	C 	0.23540 0.95500 0.20260 0.25500
C 	C 	0.18820 0.95340 0.30240 -0.11500
C 	C 	0.39300 0.04500 0.79740 0.04900
C 	C 	0.44400 0.04660 0.69760 -0.07300
C 	C 	0.06200 0.04500 0.20260 0.19300
C 	C 	0.00940 0.04660 0.30240 -0.41300
C 	C 	0.30960 0.95500 0.79740 0.15900
C 	C 	0.35840 0.95340 0.69760 0.03400
C 	C 	0.10700 0.20260 0.95500 0.20300
C 	C 	0.05600 0.30240 0.95340 -0.01900
C 	C 	0.26460 0.79740 0.04500 0.04700
C 	C 	0.31180 0.69760 0.04660 -0.07600
C 	C 	0.80960 0.79740 0.95500 0.13000
C 	C 	0.85840 0.69760 0.95340 0.08700
C 	C 	0.56200 0.20260 0.04500 0.04300
C 	C 	0.50940 0.30240 0.04660 -0.07800
C 	C 	0.76460 0.04500 0.79740 -0.01300
C 	C 	0.81180 0.04660 0.69760 0.05700
C 	C 	0.60700 0.95500 0.20260 0.17400
C 	C 	0.55600 0.95340 0.30240 0.03200
C 	C 	0.93800 0.95500 0.79740 0.03400
C 	C 	0.99060 0.95340 0.69760 0.28700
C 	C 	0.69040 0.04500 0.20260 0.04500
C 	C 	0.64160 0.04660 0.30240 -0.07600
C 	C 	0.89300 0.79740 0.04500 0.02800
C 	C 	0.94400 0.69760 0.04660 -0.00500
C 	C 	0.73540 0.20260 0.95500 0.17100
C 	C 	0.68820 0.30240 0.95340 0.04000
C 	C 	0.07330 0.35340 -0.00000 0.02400
C 	C 	0.02090 0.45820 -0.00000 -0.26000
C 	C 	0.42670 0.64660 -0.00000 -0.05400
C 	C 	0.47910 0.54180 -0.00000 -0.02200
C 	C 	0.07330 0.00000 0.35340 0.17200
C 	C 	0.02090 -0.00000 0.45820 -0.34000
C 	C 	0.42670 -0.00000 0.64660 -0.05200
C 	C 	0.47910 0.00000 0.54180 -0.02100
C 	C 	0.92670 0.64660 -0.00000 -0.13800
C 	C 	0.97910 0.54180 -0.00000 0.21800
C 	C 	0.57330 0.35340 -0.00000 -0.05900
C 	C 	0.52090 0.45820 -0.00000 -0.02000
C 	C 	0.92670 -0.00000 0.64660 -0.24500
C 	C 	0.97910 0.00000 0.54180 0.29000
C 	C 	0.57330 0.00000 0.35340 -0.05700
C 	C 	0.52090 -0.00000 0.45820 -0.02100
N 	N 	0.17330 0.15340 -0.00000 -0.29900
N 	N 	0.32670 0.84660 -0.00000 -0.24000
N 	N 	0.17330 0.00000 0.15340 -0.32700
N 	N 	0.32670 -0.00000 0.84660 -0.23500
N 	N 	0.82670 0.84660 -0.00000 -0.22100
N 	N 	0.67330 0.15340 -0.00000 -0.27600
N 	N 	0.82670 -0.00000 0.84660 -0.19500
N 	N 	0.67330 0.00000 0.15340 -0.27800
F 	F 	0.11270 0.00000 -0.00000 -0.90200
F 	F 	0.38730 0.00000 -0.00000 -0.93200
F 	F 	0.88730 0.00000 -0.00000 -0.85100
F 	F 	0.61270 0.00000 -0.00000 -0.92900
F 	F 	0.98160 0.93530 0.10150 -0.54700
F 	F 	0.01840 0.06470 0.89850 -0.66600
F 	F 	0.08310 0.89850 0.93530 -0.56700
F 	F 	0.91690 0.10150 0.06470 -0.65200
F 	F 	0.48160 0.10150 0.93530 -0.64100
F 	F 	0.51840 0.89850 0.06470 -0.68400
F 	F 	0.58310 0.93530 0.89850 -0.59300
F 	F 	0.41690 0.06470 0.10150 -0.75800
