data_crystal

_cell_length_a 4.97800
_cell_length_b 8.18900
_cell_length_c 12.00000
_cell_angle_alpha 90.00000
_cell_angle_beta  90.00000
_cell_angle_gamma 91.97000

_symmetry_space_group_name_	'P 1'
_symmetry_space_group_name_H-M	'P 1'

loop_
_symmetry_equiv_pos_as_xyz
  x,y,z

loop_
_atom_site_label
_atom_site_type_symbol
_atom_site_fract_x
_atom_site_fract_y
_atom_site_fract_z
_atom_site_charge
Al	Al	0.50000 0.00000 0.50000 2.37300
Al	Al	0.50000 0.00000 -0.00000 2.36100
Al	Al	0.75840 0.85510 0.75000 2.39800
Al	Al	0.24160 0.14490 0.25000 2.38700
P 	P 	0.99480 0.76780 0.51474 0.53300
P 	P 	0.00520 0.23220 0.01474 0.22700
P 	P 	0.00520 0.23220 0.48526 0.58700
P 	P 	0.99480 0.76780 0.98526 0.84900
H 	H 	0.96430 0.55700 0.38830 0.10800
H 	H 	0.72530 0.53900 0.48130 0.10300
H 	H 	0.03570 0.44300 0.88830 -0.03000
H 	H 	0.27470 0.46100 0.98130 0.00300
H 	H 	0.03570 0.44300 0.61170 0.08000
H 	H 	0.27470 0.46100 0.51870 0.07400
H 	H 	0.96430 0.55700 0.11170 0.21500
H 	H 	0.72530 0.53900 0.01870 0.17100
C 	C 	0.92130 0.56400 0.46930 -0.26000
C 	C 	0.07870 0.43600 0.96930 0.31200
C 	C 	0.07870 0.43600 0.53070 -0.13900
C 	C 	0.92130 0.56400 0.03070 -0.69400
O 	O 	0.96420 0.76700 0.64160 -0.67700
O 	O 	0.79700 0.88080 0.45670 -0.37800
O 	O 	0.28360 0.80720 0.48090 -0.39700
O 	O 	0.03580 0.23300 0.14160 -0.73200
O 	O 	0.20300 0.11920 0.95670 -0.67100
O 	O 	0.71640 0.19280 0.98090 -0.57700
O 	O 	0.03580 0.23300 0.35840 -0.75600
O 	O 	0.20300 0.11920 0.54330 -0.82900
O 	O 	0.71640 0.19280 0.51910 -0.75300
O 	O 	0.96420 0.76700 0.85840 -0.69900
O 	O 	0.79700 0.88080 0.04330 -0.50700
O 	O 	0.28360 0.80720 0.01910 -0.54800
F 	F 	0.54700 0.95230 0.64690 -0.83400
F 	F 	0.45300 0.04770 0.14690 -1.25700
F 	F 	0.45300 0.04770 0.35310 -1.22900
F 	F 	0.54700 0.95230 0.85310 -0.81400
