data_crystal

_cell_length_a 6.88830
_cell_length_b 21.29180
_cell_length_c 21.29180
_cell_angle_alpha 119.97100
_cell_angle_beta  90.00000
_cell_angle_gamma 90.00000

_symmetry_space_group_name_	'P 1'
_symmetry_space_group_name_H-M	'P 1'

loop_
_symmetry_equiv_pos_as_xyz
  x,y,z

loop_
_atom_site_label
_atom_site_type_symbol
_atom_site_fract_x
_atom_site_fract_y
_atom_site_fract_z
_atom_site_charge
Fe	Fe	0.50000 0.00000 -0.00000 1.13000
Fe	Fe	-0.00000 0.00000 -0.00000 1.09400
Fe	Fe	0.50000 0.50000 -0.00000 1.18100
Fe	Fe	-0.00000 0.50000 -0.00000 1.14300
Fe	Fe	-0.00000 -0.00000 0.50000 1.15000
Fe	Fe	0.50000 -0.00000 0.50000 1.18500
H 	H 	0.53930 0.32000 0.78720 0.07700
H 	H 	0.96180 0.78650 0.96370 0.15800
H 	H 	0.95850 0.67880 0.96440 0.14200
H 	H 	0.03930 0.68000 0.21280 -0.03200
H 	H 	0.46180 0.21350 0.03630 0.02900
H 	H 	0.45850 0.32120 0.03560 0.04500
H 	H 	0.96070 0.21280 0.68000 0.12400
H 	H 	0.53820 0.03630 0.21350 0.04500
H 	H 	0.54150 0.03560 0.32120 0.05700
H 	H 	0.46070 0.78720 0.32000 0.06400
H 	H 	0.03820 0.96370 0.78650 0.00800
H 	H 	0.04150 0.96440 0.67880 -0.00700
H 	H 	0.46070 0.68000 0.21280 0.04100
H 	H 	0.03820 0.21350 0.03630 -0.04500
H 	H 	0.04150 0.32120 0.03560 -0.02900
H 	H 	0.96070 0.32000 0.78720 0.14500
H 	H 	0.53820 0.78650 0.96370 0.09100
H 	H 	0.54150 0.67880 0.96440 0.07500
H 	H 	0.03930 0.78720 0.32000 -0.00700
H 	H 	0.46180 0.96370 0.78650 0.07700
H 	H 	0.45850 0.96440 0.67880 0.06300
H 	H 	0.53930 0.21280 0.68000 0.05500
H 	H 	0.96180 0.03630 0.21350 0.11800
H 	H 	0.95850 0.03560 0.32120 0.12800
C 	C 	0.42200 0.29830 0.76570 -0.03800
C 	C 	0.07840 0.76520 0.96500 -0.10600
C 	C 	0.07610 0.70080 0.96580 -0.07700
C 	C 	0.92200 0.70170 0.23430 0.09300
C 	C 	0.57840 0.23480 0.03500 -0.00700
C 	C 	0.57610 0.29920 0.03420 -0.03600
C 	C 	0.07800 0.23430 0.70170 -0.08800
C 	C 	0.42160 0.03500 0.23480 -0.02600
C 	C 	0.42390 0.03420 0.29920 -0.04300
C 	C 	0.57800 0.76570 0.29830 -0.02700
C 	C 	0.92160 0.96500 0.76520 0.06800
C 	C 	0.92390 0.96580 0.70080 0.09100
C 	C 	0.57800 0.70170 0.23430 0.00800
C 	C 	0.92160 0.23480 0.03500 0.08000
C 	C 	0.92390 0.29920 0.03420 0.05100
C 	C 	0.07800 0.29830 0.76570 -0.11800
C 	C 	0.42160 0.76520 0.96500 -0.02800
C 	C 	0.42390 0.70080 0.96580 0.00200
C 	C 	0.92200 0.76570 0.29830 0.05600
C 	C 	0.57840 0.96500 0.76520 -0.01200
C 	C 	0.57610 0.96580 0.70080 0.01000
C 	C 	0.42200 0.23430 0.70170 -0.00700
C 	C 	0.07840 0.03500 0.23480 -0.11000
C 	C 	0.07610 0.03420 0.29920 -0.12600
C 	C 	0.25000 0.39920 0.87320 0.36100
C 	C 	0.25000 0.33100 0.79880 -0.01900
C 	C 	0.25000 0.87150 0.97030 0.34300
C 	C 	0.25000 0.79830 0.96630 0.00700
C 	C 	0.25000 0.66890 0.96850 -0.02800
C 	C 	0.25000 0.60200 0.97660 0.37000
C 	C 	0.75000 0.60080 0.12680 0.39200
C 	C 	0.75000 0.66900 0.20120 -0.11000
C 	C 	0.75000 0.12850 0.02970 0.37400
C 	C 	0.75000 0.20170 0.03370 -0.12700
C 	C 	0.75000 0.33110 0.03150 -0.09400
C 	C 	0.75000 0.39800 0.02340 0.37100
C 	C 	0.25000 0.12680 0.60080 0.37200
C 	C 	0.25000 0.20120 0.66900 -0.06100
C 	C 	0.25000 0.02970 0.12850 0.35000
C 	C 	0.25000 0.03370 0.20170 -0.07100
C 	C 	0.25000 0.03150 0.33110 -0.05000
C 	C 	0.25000 0.02340 0.39800 0.35300
C 	C 	0.75000 0.87320 0.39920 0.38100
C 	C 	0.75000 0.79880 0.33100 -0.06400
C 	C 	0.75000 0.97030 0.87150 0.36400
C 	C 	0.75000 0.96630 0.79830 -0.04300
C 	C 	0.75000 0.96850 0.66890 -0.07100
C 	C 	0.75000 0.97660 0.60200 0.38800
O 	O 	0.41220 0.42397 0.90003 -0.35200
O 	O 	0.41310 0.89947 0.97373 -0.28000
O 	O 	0.41330 0.57688 0.97732 -0.34700
O 	O 	0.91220 0.57603 0.09997 -0.40000
O 	O 	0.91310 0.10053 0.02627 -0.42500
O 	O 	0.91330 0.42312 0.02268 -0.40000
O 	O 	0.08780 0.09997 0.57603 -0.46000
O 	O 	0.08690 0.02627 0.10053 -0.48600
O 	O 	0.08670 0.02268 0.42312 -0.46200
O 	O 	0.58780 0.90003 0.42397 -0.36000
O 	O 	0.58690 0.97373 0.89947 -0.28600
O 	O 	0.58670 0.97732 0.57688 -0.35500
O 	O 	0.58780 0.57603 0.09997 -0.43900
O 	O 	0.58690 0.10053 0.02627 -0.46500
O 	O 	0.58670 0.42312 0.02268 -0.44000
O 	O 	0.08780 0.42397 0.90003 -0.37900
O 	O 	0.08690 0.89947 0.97373 -0.30600
O 	O 	0.08670 0.57688 0.97732 -0.37400
O 	O 	0.91220 0.90003 0.42397 -0.32200
O 	O 	0.91310 0.97373 0.89947 -0.25100
O 	O 	0.91330 0.97732 0.57688 -0.31800
O 	O 	0.41220 0.09997 0.57603 -0.43300
O 	O 	0.41310 0.02627 0.10053 -0.45900
O 	O 	0.41330 0.02268 0.42312 -0.43400
O 	O 	0.75000 0.98010 0.01990 -0.38800
O 	O 	0.25000 0.01990 0.98010 -0.41600
O 	O 	0.75000 0.50150 0.95610 -0.30900
O 	O 	0.25000 0.49850 0.04390 -0.47400
O 	O 	0.75000 0.04390 0.49850 -0.42900
O 	O 	0.25000 0.95610 0.50150 -0.35400
