data_crystal

_cell_length_a 12.79070
_cell_length_b 12.79070
_cell_length_c 19.25800
_cell_angle_alpha 71.12260
_cell_angle_beta  71.12260
_cell_angle_gamma 86.73390

_symmetry_space_group_name_	'P 1'
_symmetry_space_group_name_H-M	'P 1'

loop_
_symmetry_equiv_pos_as_xyz
  x,y,z

loop_
_atom_site_label
_atom_site_type_symbol
_atom_site_fract_x
_atom_site_fract_y
_atom_site_fract_z
_atom_site_charge
Na	Na	0.81709 0.01845 0.24256 0.59100
Na	Na	0.98155 0.18291 0.25744 0.59100
Na	Na	0.18291 0.98155 0.75744 0.59100
Na	Na	0.01845 0.81709 0.74256 0.59100
Zn	Zn	0.72528 0.79118 0.41158 1.22400
Zn	Zn	0.20882 0.27472 0.08842 1.22400
Zn	Zn	0.27472 0.20882 0.58842 1.22500
Zn	Zn	0.79118 0.72528 0.91158 1.22500
H 	H 	0.78600 0.18220 0.29680 0.49700
H 	H 	0.81780 0.21400 0.20320 0.49700
H 	H 	0.21400 0.81780 0.70320 0.49700
H 	H 	0.18220 0.78600 0.79680 0.49700
C 	C 	0.84010 0.74490 0.27390 0.42800
C 	C 	0.90500 0.66280 0.23610 -0.11900
C 	C 	0.86990 0.62550 0.18630 0.15500
C 	C 	0.93240 0.55300 0.15050 0.16700
C 	C 	0.02980 0.51620 0.16430 -0.13200
C 	C 	0.06410 0.55250 0.21520 0.16300
C 	C 	0.00260 0.62540 0.25000 0.16200
C 	C 	0.10480 0.44680 0.12020 0.41700
C 	C 	0.88500 0.94380 0.40670 0.45100
C 	C 	0.94700 0.97520 0.45390 -0.14900
C 	C 	0.05130 0.94030 0.45040 0.16300
C 	C 	0.89430 0.03590 0.50280 0.15800
C 	C 	0.71830 0.26530 0.22640 0.14600
C 	C 	0.25510 0.15990 0.22610 0.42900
C 	C 	0.33720 0.09500 0.26390 -0.12000
C 	C 	0.37450 0.13010 0.31370 0.15600
C 	C 	0.44700 0.06760 0.34950 0.16600
C 	C 	0.48380 0.97020 0.33570 -0.13100
C 	C 	0.44750 0.93590 0.28480 0.16200
C 	C 	0.37460 0.99740 0.25000 0.16300
C 	C 	0.55320 0.89520 0.37980 0.41700
C 	C 	0.05620 0.11500 0.09330 0.45100
C 	C 	0.02480 0.05300 0.04610 -0.15300
C 	C 	0.05970 0.94870 0.04960 0.16500
C 	C 	0.96410 0.10570 0.99720 0.16000
C 	C 	0.73470 0.28170 0.27360 0.14700
C 	C 	0.15990 0.25510 0.72610 0.42800
C 	C 	0.09500 0.33720 0.76390 -0.11900
C 	C 	0.13010 0.37450 0.81370 0.15500
C 	C 	0.06760 0.44700 0.84950 0.16700
C 	C 	0.97020 0.48380 0.83570 -0.13200
C 	C 	0.93590 0.44750 0.78480 0.16300
C 	C 	0.99740 0.37460 0.75000 0.16200
C 	C 	0.89520 0.55320 0.87980 0.41700
C 	C 	0.11500 0.05620 0.59330 0.45100
C 	C 	0.05300 0.02480 0.54610 -0.14900
C 	C 	0.94870 0.05970 0.54960 0.16300
C 	C 	0.10570 0.96410 0.49720 0.15800
C 	C 	0.28170 0.73470 0.77360 0.14600
C 	C 	0.74490 0.84010 0.77390 0.42900
C 	C 	0.66280 0.90500 0.73610 -0.12000
C 	C 	0.62550 0.86990 0.68630 0.15600
C 	C 	0.55300 0.93240 0.65050 0.16600
C 	C 	0.51620 0.02980 0.66430 -0.13100
C 	C 	0.55250 0.06410 0.71520 0.16200
C 	C 	0.62540 0.00260 0.75000 0.16300
C 	C 	0.44680 0.10480 0.62020 0.41700
C 	C 	0.94380 0.88500 0.90670 0.45100
C 	C 	0.97520 0.94700 0.95390 -0.15300
C 	C 	0.94030 0.05130 0.95040 0.16500
C 	C 	0.03590 0.89430 0.00280 0.16000
C 	C 	0.26530 0.71830 0.72640 0.14700
Cl	Cl	0.74932 0.67324 0.16722 -0.24800
Cl	Cl	0.89153 0.51295 0.08503 -0.27700
Cl	Cl	0.04904 0.67452 0.30962 -0.20900
Cl	Cl	0.18357 0.50187 0.23503 -0.22600
Cl	Cl	0.11700 0.86552 0.38933 -0.21800
Cl	Cl	0.76365 0.08181 0.50480 -0.27000
Cl	Cl	0.32676 0.25068 0.33278 -0.24800
Cl	Cl	0.48705 0.10847 0.41497 -0.27700
Cl	Cl	0.32548 0.95096 0.19038 -0.20800
Cl	Cl	0.49813 0.81643 0.26497 -0.22600
Cl	Cl	0.13448 0.88300 0.11067 -0.21800
Cl	Cl	0.91819 0.23635 0.99520 -0.27000
Cl	Cl	0.25068 0.32676 0.83278 -0.24800
Cl	Cl	0.10847 0.48705 0.91497 -0.27700
Cl	Cl	0.95096 0.32548 0.69038 -0.20900
Cl	Cl	0.81643 0.49813 0.76497 -0.22600
Cl	Cl	0.88300 0.13448 0.61067 -0.21800
Cl	Cl	0.23635 0.91819 0.49520 -0.27000
Cl	Cl	0.67324 0.74932 0.66722 -0.24800
Cl	Cl	0.51295 0.89153 0.58503 -0.27700
Cl	Cl	0.67452 0.04904 0.80962 -0.20800
Cl	Cl	0.50187 0.18357 0.73503 -0.22600
Cl	Cl	0.86552 0.11700 0.88933 -0.21800
Cl	Cl	0.08181 0.76365 0.00480 -0.27000
O 	O 	0.78320 0.69900 0.34520 -0.42400
O 	O 	0.84900 0.84200 0.23540 -0.32600
O 	O 	0.08180 0.34420 0.14520 -0.47200
O 	O 	0.18280 0.49260 0.06370 -0.27000
O 	O 	0.89290 0.00490 0.34160 -0.40000
O 	O 	0.83040 0.85080 0.44370 -0.42800
O 	O 	0.30100 0.21680 0.15480 -0.42500
O 	O 	0.15800 0.15100 0.26460 -0.32600
O 	O 	0.65580 0.91820 0.35480 -0.47200
O 	O 	0.50740 0.81720 0.43630 -0.27000
O 	O 	0.99510 0.10710 0.15840 -0.40000
O 	O 	0.14920 0.16960 0.05630 -0.42900
O 	O 	0.21680 0.30100 0.65480 -0.42400
O 	O 	0.15100 0.15800 0.76460 -0.32600
O 	O 	0.91820 0.65580 0.85480 -0.47200
O 	O 	0.81720 0.50740 0.93630 -0.27000
O 	O 	0.10710 0.99510 0.65840 -0.40000
O 	O 	0.16960 0.14920 0.55630 -0.42800
O 	O 	0.69900 0.78320 0.84520 -0.42500
O 	O 	0.84200 0.84900 0.73540 -0.32600
O 	O 	0.34420 0.08180 0.64520 -0.47200
O 	O 	0.49260 0.18280 0.56370 -0.27000
O 	O 	0.00490 0.89290 0.84160 -0.40000
O 	O 	0.85080 0.83040 0.94370 -0.42900
O 	O 	0.79610 0.20390 0.25000 -1.11000
O 	O 	0.20390 0.79610 0.75000 -1.11000
