data_crystal

_cell_length_a 12.69770
_cell_length_b 15.10330
_cell_length_c 18.90300
_cell_angle_alpha 90.00000
_cell_angle_beta  90.00000
_cell_angle_gamma 90.00000

_symmetry_space_group_name_	'P 1'
_symmetry_space_group_name_H-M	'P 1'

loop_
_symmetry_equiv_pos_as_xyz
  x,y,z

loop_
_atom_site_label
_atom_site_type_symbol
_atom_site_fract_x
_atom_site_fract_y
_atom_site_fract_z
_atom_site_charge
Zn	Zn	0.19879 0.04828 0.22575 1.15900
Zn	Zn	0.12767 0.19123 0.38199 1.23700
Zn	Zn	0.30121 0.95172 0.72575 1.15900
Zn	Zn	0.37233 0.80877 0.88199 1.23700
Zn	Zn	0.80121 0.54828 0.27425 1.15900
Zn	Zn	0.87233 0.69123 0.11801 1.23700
Zn	Zn	0.69879 0.45172 0.77425 1.16000
Zn	Zn	0.62767 0.30877 0.61801 1.23800
H 	H 	0.46600 0.97650 0.31900 0.00100
H 	H 	0.64220 0.96330 0.35140 0.07500
H 	H 	0.71090 0.05210 0.43950 0.03000
H 	H 	0.43170 0.17430 0.45980 0.04000
H 	H 	0.21940 0.26390 0.10560 -0.00700
H 	H 	0.19130 0.37260 0.02140 0.07700
H 	H 	0.09020 0.49570 0.04930 0.01900
H 	H 	0.05120 0.40400 0.24700 0.00500
H 	H 	0.03400 0.02350 0.81900 0.00300
H 	H 	0.85780 0.03670 0.85140 0.07400
H 	H 	0.78910 0.94790 0.93950 0.03000
H 	H 	0.06830 0.82570 0.95980 0.04000
H 	H 	0.28060 0.73610 0.60560 -0.00700
H 	H 	0.30870 0.62740 0.52140 0.07700
H 	H 	0.40980 0.50430 0.54930 0.01800
H 	H 	0.44880 0.59600 0.74700 0.00500
H 	H 	0.53400 0.47650 0.18100 0.00100
H 	H 	0.35780 0.46330 0.14860 0.07500
H 	H 	0.28910 0.55210 0.06050 0.03000
H 	H 	0.56830 0.67430 0.04020 0.04000
H 	H 	0.78060 0.76390 0.39440 -0.00700
H 	H 	0.80870 0.87260 0.47860 0.07700
H 	H 	0.90980 0.99570 0.45070 0.01800
H 	H 	0.94880 0.90400 0.25300 0.00500
H 	H 	0.96600 0.52350 0.68100 0.00100
H 	H 	0.14220 0.53670 0.64860 0.07400
H 	H 	0.21090 0.44790 0.56050 0.03100
H 	H 	0.93170 0.32570 0.54020 0.04000
H 	H 	0.71940 0.23610 0.89440 -0.00700
H 	H 	0.69130 0.12740 0.97860 0.07700
H 	H 	0.59020 0.00430 0.95070 0.01900
H 	H 	0.55120 0.09600 0.75300 0.00500
C 	C 	0.31720 0.08755 0.36565 0.41200
C 	C 	0.43120 0.07645 0.38643 -0.15100
C 	C 	0.49400 0.01315 0.35376 0.05600
C 	C 	0.59950 0.00490 0.37354 -0.12700
C 	C 	0.64090 0.05860 0.42598 0.04000
C 	C 	0.57850 0.12219 0.45859 -0.11600
C 	C 	0.47360 0.13143 0.43849 0.05400
C 	C 	0.62450 0.17848 0.51717 0.33100
C 	C 	0.15570 0.25148 0.23937 0.41400
C 	C 	0.17990 0.31379 0.11701 0.07700
C 	C 	0.16270 0.37855 0.06641 -0.15400
C 	C 	0.10240 0.45242 0.08329 0.07500
C 	C 	0.06032 0.46203 0.15074 -0.16600
C 	C 	0.07870 0.39745 0.20174 0.09100
C 	C 	0.13850 0.32279 0.18488 -0.17100
C 	C 	0.98846 0.53926 0.16717 0.41200
C 	C 	0.18280 0.91245 0.86565 0.41200
C 	C 	0.06880 0.92355 0.88643 -0.15000
C 	C 	0.00600 0.98685 0.85376 0.05200
C 	C 	0.90050 0.99510 0.87354 -0.12500
C 	C 	0.85910 0.94140 0.92598 0.03900
C 	C 	0.92150 0.87781 0.95859 -0.11600
C 	C 	0.02640 0.86857 0.93849 0.05400
C 	C 	0.87550 0.82152 0.01717 0.33200
C 	C 	0.34430 0.74852 0.73937 0.41400
C 	C 	0.32010 0.68621 0.61701 0.07800
C 	C 	0.33730 0.62145 0.56641 -0.15400
C 	C 	0.39760 0.54758 0.58329 0.07500
C 	C 	0.43968 0.53797 0.65074 -0.16700
C 	C 	0.42130 0.60255 0.70174 0.09200
C 	C 	0.36150 0.67721 0.68488 -0.17100
C 	C 	0.51154 0.46074 0.66717 0.41200
C 	C 	0.68280 0.58755 0.13435 0.41200
C 	C 	0.56880 0.57645 0.11357 -0.15100
C 	C 	0.50600 0.51315 0.14624 0.05600
C 	C 	0.40050 0.50490 0.12646 -0.12600
C 	C 	0.35910 0.55860 0.07402 0.04000
C 	C 	0.42150 0.62219 0.04141 -0.11600
C 	C 	0.52640 0.63143 0.06151 0.05400
C 	C 	0.37550 0.67848 0.98283 0.33100
C 	C 	0.84430 0.75148 0.26063 0.41400
C 	C 	0.82010 0.81379 0.38299 0.07800
C 	C 	0.83730 0.87855 0.43359 -0.15400
C 	C 	0.89760 0.95242 0.41671 0.07500
C 	C 	0.93968 0.96203 0.34926 -0.16700
C 	C 	0.92130 0.89745 0.29826 0.09200
C 	C 	0.86150 0.82279 0.31512 -0.17100
C 	C 	0.01154 0.03926 0.33283 0.41300
C 	C 	0.81720 0.41245 0.63435 0.41200
C 	C 	0.93120 0.42355 0.61357 -0.15000
C 	C 	0.99400 0.48685 0.64624 0.05300
C 	C 	0.09950 0.49510 0.62646 -0.12400
C 	C 	0.14090 0.44140 0.57402 0.03800
C 	C 	0.07850 0.37781 0.54141 -0.11400
C 	C 	0.97360 0.36857 0.56151 0.05200
C 	C 	0.12450 0.32152 0.48283 0.33100
C 	C 	0.65570 0.24852 0.76063 0.41400
C 	C 	0.67990 0.18621 0.88299 0.07700
C 	C 	0.66270 0.12145 0.93359 -0.15400
C 	C 	0.60240 0.04758 0.91671 0.07400
C 	C 	0.56032 0.03797 0.84926 -0.16600
C 	C 	0.57870 0.10255 0.79826 0.09100
C 	C 	0.63850 0.17721 0.81512 -0.17000
C 	C 	0.48846 0.96074 0.83283 0.41200
O 	O 	0.27835 0.03562 0.32094 -0.51100
O 	O 	0.26971 0.14922 0.39702 -0.48900
O 	O 	0.56602 0.24118 0.54013 -0.43700
O 	O 	0.71280 0.16217 0.53976 -0.30200
O 	O 	0.21224 0.18659 0.22331 -0.50700
O 	O 	0.11016 0.26390 0.29802 -0.48900
O 	O 	0.95354 0.54777 0.22813 -0.50300
O 	O 	0.96897 0.58954 0.11529 -0.47600
O 	O 	0.22165 0.96438 0.82094 -0.51100
O 	O 	0.23029 0.85078 0.89702 -0.48900
O 	O 	0.93398 0.75882 0.04013 -0.43700
O 	O 	0.78720 0.83783 0.03976 -0.30200
O 	O 	0.28776 0.81341 0.72331 -0.50700
O 	O 	0.38984 0.73610 0.79802 -0.48900
O 	O 	0.54646 0.45223 0.72813 -0.50300
O 	O 	0.53103 0.41046 0.61529 -0.47600
O 	O 	0.72165 0.53562 0.17906 -0.51100
O 	O 	0.73029 0.64922 0.10298 -0.48900
O 	O 	0.43398 0.74118 0.95987 -0.43700
O 	O 	0.28720 0.66217 0.96024 -0.30200
O 	O 	0.78776 0.68659 0.27669 -0.50700
O 	O 	0.88984 0.76390 0.20198 -0.48900
O 	O 	0.04646 0.04777 0.27187 -0.50300
O 	O 	0.03103 0.08954 0.38471 -0.47500
O 	O 	0.77835 0.46438 0.67906 -0.51100
O 	O 	0.76971 0.35078 0.60298 -0.48900
O 	O 	0.06602 0.25882 0.45987 -0.43700
O 	O 	0.21280 0.33783 0.46024 -0.30200
O 	O 	0.71224 0.31341 0.77669 -0.50700
O 	O 	0.61016 0.23610 0.70198 -0.48900
O 	O 	0.45354 0.95223 0.77187 -0.50300
O 	O 	0.46897 0.91046 0.88471 -0.47600
