data_crystal

_cell_length_a 17.92440
_cell_length_b 17.92440
_cell_length_c 18.44540
_cell_angle_alpha 90.00000
_cell_angle_beta  90.00000
_cell_angle_gamma 120.00000

_symmetry_space_group_name_	'P 1'
_symmetry_space_group_name_H-M	'P 1'

loop_
_symmetry_equiv_pos_as_xyz
  x,y,z

loop_
_atom_site_label
_atom_site_type_symbol
_atom_site_fract_x
_atom_site_fract_y
_atom_site_fract_z
_atom_site_charge
Zn	Zn	0.28253 0.28958 0.04371 1.19800
Zn	Zn	0.71042 0.99295 0.04371 1.19700
Zn	Zn	0.00705 0.71747 0.04371 1.19700
Zn	Zn	0.94920 0.62291 0.37704 1.19800
Zn	Zn	0.37709 0.32628 0.37704 1.19700
Zn	Zn	0.67372 0.05080 0.37704 1.19700
Zn	Zn	0.61586 0.95625 0.71038 1.19700
Zn	Zn	0.04375 0.65962 0.71038 1.19700
Zn	Zn	0.34038 0.38414 0.71038 1.19700
Zn	Zn	0.71747 0.71042 0.95629 1.19700
Zn	Zn	0.28958 0.00705 0.95629 1.19600
Zn	Zn	0.99295 0.28253 0.95629 1.19600
Zn	Zn	0.05080 0.37709 0.62296 1.19700
Zn	Zn	0.62291 0.67372 0.62296 1.19700
Zn	Zn	0.32628 0.94920 0.62296 1.19700
Zn	Zn	0.38414 0.04375 0.28962 1.19700
Zn	Zn	0.95625 0.34038 0.28962 1.19700
Zn	Zn	0.65962 0.61586 0.28962 1.19700
H 	H 	0.26110 0.43560 0.93910 0.24700
H 	H 	0.56440 0.82550 0.93910 0.24700
H 	H 	0.17450 0.73890 0.93910 0.24800
H 	H 	0.92777 0.76893 0.27243 0.24700
H 	H 	0.23107 0.15883 0.27243 0.24700
H 	H 	0.84117 0.07223 0.27243 0.24800
H 	H 	0.59443 0.10227 0.60577 0.24600
H 	H 	0.89773 0.49217 0.60577 0.24600
H 	H 	0.50783 0.40557 0.60577 0.24700
H 	H 	0.73890 0.56440 0.06090 0.24700
H 	H 	0.43560 0.17450 0.06090 0.24700
H 	H 	0.82550 0.26110 0.06090 0.24800
H 	H 	0.07223 0.23107 0.72757 0.24700
H 	H 	0.76893 0.84117 0.72757 0.24700
H 	H 	0.15883 0.92777 0.72757 0.24800
H 	H 	0.40557 0.89773 0.39423 0.24600
H 	H 	0.10227 0.50783 0.39423 0.24600
H 	H 	0.49217 0.59443 0.39423 0.24700
H 	H 	0.22670 0.42620 0.85960 0.24100
H 	H 	0.57380 0.80050 0.85960 0.24100
H 	H 	0.19950 0.77330 0.85960 0.24200
H 	H 	0.89337 0.75953 0.19293 0.24100
H 	H 	0.24047 0.13383 0.19293 0.24100
H 	H 	0.86617 0.10663 0.19293 0.24200
H 	H 	0.56003 0.09287 0.52627 0.24100
H 	H 	0.90713 0.46717 0.52627 0.24100
H 	H 	0.53283 0.43997 0.52627 0.24100
H 	H 	0.77330 0.57380 0.14040 0.24100
H 	H 	0.42620 0.19950 0.14040 0.24100
H 	H 	0.80050 0.22670 0.14040 0.24200
H 	H 	0.10663 0.24047 0.80707 0.24100
H 	H 	0.75953 0.86617 0.80707 0.24100
H 	H 	0.13383 0.89337 0.80707 0.24200
H 	H 	0.43997 0.90713 0.47373 0.24100
H 	H 	0.09287 0.53283 0.47373 0.24100
H 	H 	0.46717 0.56003 0.47373 0.24100
H 	H 	0.32540 0.48380 0.87550 0.25100
H 	H 	0.51620 0.84160 0.87550 0.25100
H 	H 	0.15840 0.67460 0.87550 0.25200
H 	H 	0.99207 0.81713 0.20883 0.25200
H 	H 	0.18287 0.17493 0.20883 0.25100
H 	H 	0.82507 0.00793 0.20883 0.25300
H 	H 	0.65873 0.15047 0.54217 0.25100
H 	H 	0.84953 0.50827 0.54217 0.25100
H 	H 	0.49173 0.34127 0.54217 0.25100
H 	H 	0.67460 0.51620 0.12450 0.25100
H 	H 	0.48380 0.15840 0.12450 0.25100
H 	H 	0.84160 0.32540 0.12450 0.25200
H 	H 	0.00793 0.18287 0.79117 0.25200
H 	H 	0.81713 0.82507 0.79117 0.25100
H 	H 	0.17493 0.99207 0.79117 0.25300
H 	H 	0.34127 0.84953 0.45783 0.25100
H 	H 	0.15047 0.49173 0.45783 0.25100
H 	H 	0.50827 0.65873 0.45783 0.25100
H 	H 	0.31800 0.12800 0.81020 0.17000
H 	H 	0.87200 0.19000 0.81020 0.17000
H 	H 	0.81000 0.68200 0.81020 0.17100
H 	H 	0.98467 0.46133 0.14353 0.17100
H 	H 	0.53867 0.52333 0.14353 0.17100
H 	H 	0.47667 0.01533 0.14353 0.17100
H 	H 	0.65133 0.79467 0.47687 0.17100
H 	H 	0.20533 0.85667 0.47687 0.17100
H 	H 	0.14333 0.34867 0.47687 0.17100
H 	H 	0.68200 0.87200 0.18980 0.17000
H 	H 	0.12800 0.81000 0.18980 0.17000
H 	H 	0.19000 0.31800 0.18980 0.17100
H 	H 	0.01533 0.53867 0.85647 0.17100
H 	H 	0.46133 0.47667 0.85647 0.17100
H 	H 	0.52333 0.98467 0.85647 0.17100
H 	H 	0.34867 0.20533 0.52313 0.17100
H 	H 	0.79467 0.14333 0.52313 0.17100
H 	H 	0.85667 0.65133 0.52313 0.17100
H 	H 	0.33000 0.12400 0.73350 0.19200
H 	H 	0.87600 0.20600 0.73350 0.19200
H 	H 	0.79400 0.67000 0.73350 0.19200
H 	H 	0.99667 0.45733 0.06683 0.19400
H 	H 	0.54267 0.53933 0.06683 0.19200
H 	H 	0.46067 0.00333 0.06683 0.19300
H 	H 	0.66333 0.79067 0.40017 0.19200
H 	H 	0.20933 0.87267 0.40017 0.19200
H 	H 	0.12733 0.33667 0.40017 0.19200
H 	H 	0.67000 0.87600 0.26650 0.19200
H 	H 	0.12400 0.79400 0.26650 0.19200
H 	H 	0.20600 0.33000 0.26650 0.19200
H 	H 	0.00333 0.54267 0.93317 0.19400
H 	H 	0.45733 0.46067 0.93317 0.19200
H 	H 	0.53933 0.99667 0.93317 0.19300
H 	H 	0.33667 0.20933 0.59983 0.19200
H 	H 	0.79067 0.12733 0.59983 0.19200
H 	H 	0.87267 0.66333 0.59983 0.19200
H 	H 	0.26100 0.13690 0.03600 0.14500
H 	H 	0.86310 0.12410 0.03600 0.14500
H 	H 	0.87590 0.73900 0.03600 0.14500
H 	H 	0.92767 0.47023 0.36933 0.14500
H 	H 	0.52977 0.45743 0.36933 0.14500
H 	H 	0.54257 0.07233 0.36933 0.14500
H 	H 	0.59433 0.80357 0.70267 0.14500
H 	H 	0.19643 0.79077 0.70267 0.14500
H 	H 	0.20923 0.40567 0.70267 0.14500
H 	H 	0.73900 0.86310 0.96400 0.14500
H 	H 	0.13690 0.87590 0.96400 0.14500
H 	H 	0.12410 0.26100 0.96400 0.14500
H 	H 	0.07233 0.52977 0.63067 0.14500
H 	H 	0.47023 0.54257 0.63067 0.14500
H 	H 	0.45743 0.92767 0.63067 0.14500
H 	H 	0.40567 0.19643 0.29733 0.14500
H 	H 	0.80357 0.20923 0.29733 0.14500
H 	H 	0.79077 0.59433 0.29733 0.14500
C 	C 	0.28512 0.35653 0.87783 0.29600
C 	C 	0.64347 0.92859 0.87783 0.29600
C 	C 	0.07141 0.71488 0.87783 0.29600
C 	C 	0.95179 0.68986 0.21116 0.29600
C 	C 	0.31014 0.26192 0.21116 0.29600
C 	C 	0.73808 0.04821 0.21116 0.29700
C 	C 	0.61845 0.02320 0.54450 0.29500
C 	C 	0.97680 0.59526 0.54450 0.29500
C 	C 	0.40474 0.38155 0.54450 0.29500
C 	C 	0.71488 0.64347 0.12217 0.29600
C 	C 	0.35653 0.07141 0.12217 0.29600
C 	C 	0.92859 0.28512 0.12217 0.29600
C 	C 	0.04821 0.31014 0.78884 0.29600
C 	C 	0.68986 0.73808 0.78884 0.29600
C 	C 	0.26192 0.95179 0.78884 0.29700
C 	C 	0.38155 0.97680 0.45550 0.29500
C 	C 	0.02320 0.40474 0.45550 0.29500
C 	C 	0.59526 0.61845 0.45550 0.29500
C 	C 	0.27360 0.43230 0.88899 -0.83000
C 	C 	0.56770 0.84130 0.88899 -0.83000
C 	C 	0.15870 0.72640 0.88899 -0.83100
C 	C 	0.94027 0.76563 0.22232 -0.83000
C 	C 	0.23437 0.17463 0.22232 -0.83000
C 	C 	0.82537 0.05973 0.22232 -0.83200
C 	C 	0.60693 0.09897 0.55566 -0.82900
C 	C 	0.90103 0.50797 0.55566 -0.82800
C 	C 	0.49203 0.39307 0.55566 -0.82900
C 	C 	0.72640 0.56770 0.11101 -0.83000
C 	C 	0.43230 0.15870 0.11101 -0.83000
C 	C 	0.84130 0.27360 0.11101 -0.83100
C 	C 	0.05973 0.23437 0.77768 -0.83000
C 	C 	0.76563 0.82537 0.77768 -0.83000
C 	C 	0.17463 0.94027 0.77768 -0.83200
C 	C 	0.39307 0.90103 0.44434 -0.82900
C 	C 	0.09897 0.49203 0.44434 -0.82800
C 	C 	0.50797 0.60693 0.44434 -0.82900
C 	C 	0.32560 0.22410 0.76207 0.25600
C 	C 	0.77590 0.10150 0.76207 0.25600
C 	C 	0.89850 0.67440 0.76207 0.25600
C 	C 	0.99227 0.55743 0.09540 0.25900
C 	C 	0.44257 0.43483 0.09540 0.25600
C 	C 	0.56517 0.00773 0.09540 0.25900
C 	C 	0.65893 0.89077 0.42874 0.25600
C 	C 	0.10923 0.76817 0.42874 0.25600
C 	C 	0.23183 0.34107 0.42874 0.25600
C 	C 	0.67440 0.77590 0.23793 0.25600
C 	C 	0.22410 0.89850 0.23793 0.25600
C 	C 	0.10150 0.32560 0.23793 0.25600
C 	C 	0.00773 0.44257 0.90460 0.25900
C 	C 	0.55743 0.56517 0.90460 0.25600
C 	C 	0.43483 0.99227 0.90460 0.25900
C 	C 	0.34107 0.10923 0.57126 0.25600
C 	C 	0.89077 0.23183 0.57126 0.25600
C 	C 	0.76817 0.65893 0.57126 0.25600
C 	C 	0.30631 0.26116 0.82585 -0.05100
C 	C 	0.73884 0.04515 0.82585 -0.05200
C 	C 	0.95485 0.69369 0.82585 -0.05200
C 	C 	0.97298 0.59449 0.15918 -0.05200
C 	C 	0.40551 0.37848 0.15918 -0.05100
C 	C 	0.62152 0.02702 0.15918 -0.05200
C 	C 	0.63964 0.92783 0.49252 -0.05100
C 	C 	0.07217 0.71182 0.49252 -0.05100
C 	C 	0.28818 0.36036 0.49252 -0.05100
C 	C 	0.69369 0.73884 0.17415 -0.05100
C 	C 	0.26116 0.95485 0.17415 -0.05200
C 	C 	0.04515 0.30631 0.17415 -0.05200
C 	C 	0.02702 0.40551 0.84082 -0.05200
C 	C 	0.59449 0.62152 0.84082 -0.05100
C 	C 	0.37848 0.97298 0.84082 -0.05200
C 	C 	0.36036 0.07217 0.50748 -0.05100
C 	C 	0.92783 0.28818 0.50748 -0.05100
C 	C 	0.71182 0.63964 0.50748 -0.05100
C 	C 	0.28939 0.23991 0.89829 -0.05000
C 	C 	0.76009 0.04948 0.89829 -0.05100
C 	C 	0.95052 0.71061 0.89829 -0.05100
C 	C 	0.95606 0.57324 0.23162 -0.04900
C 	C 	0.42676 0.38281 0.23162 -0.05000
C 	C 	0.61719 0.04394 0.23162 -0.04900
C 	C 	0.62272 0.90658 0.56496 -0.05000
C 	C 	0.09342 0.71615 0.56496 -0.05000
C 	C 	0.28385 0.37728 0.56496 -0.05000
C 	C 	0.71061 0.76009 0.10171 -0.05000
C 	C 	0.23991 0.95052 0.10171 -0.05100
C 	C 	0.04948 0.28939 0.10171 -0.05100
C 	C 	0.04394 0.42676 0.76838 -0.04900
C 	C 	0.57324 0.61719 0.76838 -0.05000
C 	C 	0.38281 0.95606 0.76838 -0.04900
C 	C 	0.37728 0.09342 0.43504 -0.05000
C 	C 	0.90658 0.28385 0.43504 -0.05000
C 	C 	0.71615 0.62272 0.43504 -0.05000
C 	C 	0.28490 0.17040 0.94456 0.21800
C 	C 	0.82960 0.11450 0.94456 0.21500
C 	C 	0.88550 0.71510 0.94456 0.21800
C 	C 	0.95157 0.50373 0.27789 0.21900
C 	C 	0.49627 0.44783 0.27789 0.21900
C 	C 	0.55217 0.04843 0.27789 0.21900
C 	C 	0.61823 0.83707 0.61123 0.21900
C 	C 	0.16293 0.78117 0.61123 0.21900
C 	C 	0.21883 0.38177 0.61123 0.21900
C 	C 	0.71510 0.82960 0.05544 0.21800
C 	C 	0.17040 0.88550 0.05544 0.21500
C 	C 	0.11450 0.28490 0.05544 0.21800
C 	C 	0.04843 0.49627 0.72211 0.21900
C 	C 	0.50373 0.55217 0.72211 0.21900
C 	C 	0.44783 0.95157 0.72211 0.21900
C 	C 	0.38177 0.16293 0.38877 0.21900
C 	C 	0.83707 0.21883 0.38877 0.21900
C 	C 	0.78117 0.61823 0.38877 0.21900
N 	N 	0.27668 0.30098 0.93073 -0.28700
N 	N 	0.69902 0.97570 0.93073 -0.28600
N 	N 	0.02430 0.72332 0.93073 -0.28500
N 	N 	0.94335 0.63431 0.26406 -0.28700
N 	N 	0.36569 0.30903 0.26406 -0.28700
N 	N 	0.69097 0.05665 0.26406 -0.28700
N 	N 	0.61001 0.96765 0.59740 -0.28700
N 	N 	0.03235 0.64237 0.59740 -0.28600
N 	N 	0.35763 0.38999 0.59740 -0.28700
N 	N 	0.72332 0.69902 0.06927 -0.28700
N 	N 	0.30098 0.02430 0.06927 -0.28600
N 	N 	0.97570 0.27668 0.06927 -0.28500
N 	N 	0.05665 0.36569 0.73594 -0.28700
N 	N 	0.63431 0.69097 0.73594 -0.28700
N 	N 	0.30903 0.94335 0.73594 -0.28700
N 	N 	0.38999 0.03235 0.40260 -0.28700
N 	N 	0.96765 0.35763 0.40260 -0.28600
N 	N 	0.64237 0.61001 0.40260 -0.28700
N 	N 	0.30282 0.33410 0.81374 -0.29000
N 	N 	0.66590 0.96872 0.81374 -0.28900
N 	N 	0.03128 0.69718 0.81374 -0.28900
N 	N 	0.96949 0.66743 0.14707 -0.28900
N 	N 	0.33257 0.30205 0.14707 -0.29000
N 	N 	0.69795 0.03051 0.14707 -0.28900
N 	N 	0.63615 0.00077 0.48041 -0.29000
N 	N 	0.99923 0.63539 0.48041 -0.29000
N 	N 	0.36461 0.36385 0.48041 -0.29000
N 	N 	0.69718 0.66590 0.18626 -0.29000
N 	N 	0.33410 0.03128 0.18626 -0.28900
N 	N 	0.96872 0.30282 0.18626 -0.28900
N 	N 	0.03051 0.33257 0.85293 -0.28900
N 	N 	0.66743 0.69795 0.85293 -0.29000
N 	N 	0.30205 0.96949 0.85293 -0.28900
N 	N 	0.36385 0.99923 0.51959 -0.29000
N 	N 	0.00077 0.36461 0.51959 -0.29000
N 	N 	0.63539 0.63615 0.51959 -0.29000
N 	N 	0.32780 0.15280 0.76837 -0.37500
N 	N 	0.84720 0.17500 0.76837 -0.37500
N 	N 	0.82500 0.67220 0.76837 -0.37500
N 	N 	0.99447 0.48613 0.10170 -0.37600
N 	N 	0.51387 0.50833 0.10170 -0.37500
N 	N 	0.49167 0.00553 0.10170 -0.37600
N 	N 	0.66113 0.81947 0.43504 -0.37500
N 	N 	0.18053 0.84167 0.43504 -0.37500
N 	N 	0.15833 0.33887 0.43504 -0.37500
N 	N 	0.67220 0.84720 0.23163 -0.37500
N 	N 	0.15280 0.82500 0.23163 -0.37500
N 	N 	0.17500 0.32780 0.23163 -0.37500
N 	N 	0.00553 0.51387 0.89830 -0.37600
N 	N 	0.48613 0.49167 0.89830 -0.37500
N 	N 	0.50833 0.99447 0.89830 -0.37600
N 	N 	0.33887 0.18053 0.56496 -0.37500
N 	N 	0.81947 0.15833 0.56496 -0.37500
N 	N 	0.84167 0.66113 0.56496 -0.37500
N 	N 	0.27431 0.17870 0.01239 -0.43100
N 	N 	0.82130 0.09561 0.01239 -0.42900
N 	N 	0.90439 0.72569 0.01239 -0.43000
N 	N 	0.94098 0.51203 0.34572 -0.43100
N 	N 	0.48797 0.42894 0.34572 -0.43100
N 	N 	0.57106 0.05902 0.34572 -0.43100
N 	N 	0.60764 0.84537 0.67906 -0.43100
N 	N 	0.15463 0.76228 0.67906 -0.43100
N 	N 	0.23772 0.39236 0.67906 -0.43100
N 	N 	0.72569 0.82130 0.98761 -0.43100
N 	N 	0.17870 0.90439 0.98761 -0.42900
N 	N 	0.09561 0.27431 0.98761 -0.43000
N 	N 	0.05902 0.48797 0.65428 -0.43100
N 	N 	0.51203 0.57106 0.65428 -0.43100
N 	N 	0.42894 0.94098 0.65428 -0.43100
N 	N 	0.39236 0.15463 0.32094 -0.43100
N 	N 	0.84537 0.23772 0.32094 -0.43100
N 	N 	0.76228 0.60764 0.32094 -0.43100
O 	O 	0.34050 0.26464 0.70338 -0.42600
O 	O 	0.73536 0.07586 0.70338 -0.42700
O 	O 	0.92414 0.65950 0.70338 -0.42700
O 	O 	0.00717 0.59797 0.03671 -0.43000
O 	O 	0.40203 0.40919 0.03671 -0.42600
O 	O 	0.59081 0.99283 0.03671 -0.42900
O 	O 	0.67383 0.93131 0.37005 -0.42700
O 	O 	0.06869 0.74253 0.37005 -0.42600
O 	O 	0.25747 0.32617 0.37005 -0.42600
O 	O 	0.65950 0.73536 0.29662 -0.42600
O 	O 	0.26464 0.92414 0.29662 -0.42700
O 	O 	0.07586 0.34050 0.29662 -0.42700
O 	O 	0.99283 0.40203 0.96329 -0.43000
O 	O 	0.59797 0.59081 0.96329 -0.42600
O 	O 	0.40919 0.00717 0.96329 -0.42900
O 	O 	0.32617 0.06869 0.62995 -0.42700
O 	O 	0.93131 0.25747 0.62995 -0.42600
O 	O 	0.74253 0.67383 0.62995 -0.42600
O 	O 	0.29089 0.10973 0.91430 -0.47600
O 	O 	0.89027 0.18116 0.91430 -0.47500
O 	O 	0.81884 0.70911 0.91430 -0.47500
O 	O 	0.95756 0.44306 0.24763 -0.47500
O 	O 	0.55694 0.51449 0.24763 -0.47500
O 	O 	0.48551 0.04244 0.24763 -0.47500
O 	O 	0.62422 0.77640 0.58097 -0.47500
O 	O 	0.22360 0.84783 0.58097 -0.47500
O 	O 	0.15217 0.37578 0.58097 -0.47500
O 	O 	0.70911 0.89027 0.08570 -0.47600
O 	O 	0.10973 0.81884 0.08570 -0.47500
O 	O 	0.18116 0.29089 0.08570 -0.47500
O 	O 	0.04244 0.55694 0.75237 -0.47500
O 	O 	0.44306 0.48551 0.75237 -0.47500
O 	O 	0.51449 0.95756 0.75237 -0.47500
O 	O 	0.37578 0.22360 0.41903 -0.47500
O 	O 	0.77640 0.15217 0.41903 -0.47500
O 	O 	0.84783 0.62422 0.41903 -0.47500
