data_crystal

_cell_length_a 5.04840
_cell_length_b 8.25470
_cell_length_c 12.36990
_cell_angle_alpha 90.00000
_cell_angle_beta  90.00000
_cell_angle_gamma 92.06400

_symmetry_space_group_name_	'P 1'
_symmetry_space_group_name_H-M	'P 1'

loop_
_symmetry_equiv_pos_as_xyz
  x,y,z

loop_
_atom_site_label
_atom_site_type_symbol
_atom_site_fract_x
_atom_site_fract_y
_atom_site_fract_z
_atom_site_charge
Ga	Ga	0.50000 0.00000 0.50000 2.01900
Ga	Ga	0.50000 0.00000 -0.00000 1.99100
Ga	Ga	0.77070 0.85470 0.75000 2.08600
Ga	Ga	0.22930 0.14530 0.25000 2.05600
P 	P 	0.99190 0.76670 0.51400 0.49000
P 	P 	0.00810 0.23330 0.01400 0.25400
P 	P 	0.00810 0.23330 0.48600 0.54300
P 	P 	0.99190 0.76670 0.98600 0.74100
C 	C 	0.91400 0.55800 0.47360 -0.06600
C 	C 	0.08600 0.44200 0.97360 0.20900
C 	C 	0.08600 0.44200 0.52640 -0.02300
C 	C 	0.91400 0.55800 0.02640 -0.28900
O 	O 	0.27900 0.79450 0.48150 -0.33200
O 	O 	0.79800 0.87300 0.46040 -0.35600
O 	O 	0.98600 0.76930 0.63690 -0.57900
O 	O 	0.72100 0.20550 0.98150 -0.47000
O 	O 	0.20200 0.12700 0.96040 -0.58900
O 	O 	0.01400 0.23070 0.13690 -0.61500
O 	O 	0.72100 0.20550 0.51850 -0.62000
O 	O 	0.20200 0.12700 0.53960 -0.73000
O 	O 	0.01400 0.23070 0.36310 -0.63600
O 	O 	0.27900 0.79450 0.01850 -0.45700
O 	O 	0.79800 0.87300 0.03960 -0.46500
O 	O 	0.98600 0.76930 0.86310 -0.59800
F 	F 	0.54200 0.95650 0.65110 -0.72900
F 	F 	0.45800 0.04350 0.15110 -1.07200
F 	F 	0.45800 0.04350 0.34890 -1.05300
F 	F 	0.54200 0.95650 0.84890 -0.71000
