data_crystal

_cell_length_a 11.55850
_cell_length_b 11.55850
_cell_length_c 25.81900
_cell_angle_alpha 90.00000
_cell_angle_beta  90.00000
_cell_angle_gamma 90.00000

_symmetry_space_group_name_	'P 1'
_symmetry_space_group_name_H-M	'P 1'

loop_
_symmetry_equiv_pos_as_xyz
  x,y,z

loop_
_atom_site_label
_atom_site_type_symbol
_atom_site_fract_x
_atom_site_fract_y
_atom_site_fract_z
_atom_site_charge
Zn	Zn	0.90122 0.09878 0.79186 1.17100
Zn	Zn	0.09878 0.90122 0.79186 1.17100
Zn	Zn	0.90122 0.90122 0.29186 1.16500
Zn	Zn	0.09878 0.09878 0.29186 1.17800
Zn	Zn	0.09878 0.09878 0.70814 1.17800
Zn	Zn	0.90122 0.90122 0.70814 1.16500
Zn	Zn	0.09878 0.90122 0.20814 1.17100
Zn	Zn	0.90122 0.09878 0.20814 1.17100
H 	H 	0.67930 0.17610 0.83970 0.12900
H 	H 	0.56200 0.20970 0.81040 0.15400
H 	H 	0.56290 0.10550 0.85120 0.16400
H 	H 	0.32070 0.82390 0.83970 0.11600
H 	H 	0.43800 0.79030 0.81040 0.14000
H 	H 	0.43710 0.89450 0.85120 0.14000
H 	H 	0.82390 0.67930 0.33970 0.11600
H 	H 	0.79030 0.56200 0.31040 0.14000
H 	H 	0.89450 0.56290 0.35120 0.14100
H 	H 	0.17610 0.32070 0.33970 0.12900
H 	H 	0.20970 0.43800 0.31040 0.15300
H 	H 	0.10550 0.43710 0.35120 0.16300
H 	H 	0.32070 0.17610 0.66030 0.12900
H 	H 	0.43800 0.20970 0.68960 0.15300
H 	H 	0.43710 0.10550 0.64880 0.16300
H 	H 	0.67930 0.82390 0.66030 0.11600
H 	H 	0.56200 0.79030 0.68960 0.14000
H 	H 	0.56290 0.89450 0.64880 0.14100
H 	H 	0.17610 0.67930 0.16030 0.12900
H 	H 	0.20970 0.56200 0.18960 0.15400
H 	H 	0.10550 0.56290 0.14880 0.16400
H 	H 	0.82390 0.32070 0.16030 0.11600
H 	H 	0.79030 0.43800 0.18960 0.14000
H 	H 	0.89450 0.43710 0.14880 0.14000
H 	H 	0.32070 0.82390 0.16030 0.11600
H 	H 	0.43800 0.79030 0.18960 0.14000
H 	H 	0.43710 0.89450 0.14880 0.14000
H 	H 	0.67930 0.17610 0.16030 0.12900
H 	H 	0.56200 0.20970 0.18960 0.15400
H 	H 	0.56290 0.10550 0.14880 0.16400
H 	H 	0.17610 0.32070 0.66030 0.12900
H 	H 	0.20970 0.43800 0.68960 0.15300
H 	H 	0.10550 0.43710 0.64880 0.16300
H 	H 	0.82390 0.67930 0.66030 0.11600
H 	H 	0.79030 0.56200 0.68960 0.14000
H 	H 	0.89450 0.56290 0.64880 0.14100
H 	H 	0.67930 0.82390 0.33970 0.11600
H 	H 	0.56200 0.79030 0.31040 0.14000
H 	H 	0.56290 0.89450 0.35120 0.14100
H 	H 	0.32070 0.17610 0.33970 0.12900
H 	H 	0.43800 0.20970 0.31040 0.15300
H 	H 	0.43710 0.10550 0.35120 0.16300
H 	H 	0.82390 0.32070 0.83970 0.11600
H 	H 	0.79030 0.43800 0.81040 0.14000
H 	H 	0.89450 0.43710 0.85120 0.14000
H 	H 	0.17610 0.67930 0.83970 0.12900
H 	H 	0.20970 0.56200 0.81040 0.15400
H 	H 	0.10550 0.56290 0.85120 0.16400
H 	H 	0.87630 0.12370 0.95560 0.03100
H 	H 	0.12370 0.87630 0.95560 0.03100
H 	H 	0.87630 0.87630 0.45560 0.03200
H 	H 	0.12370 0.12370 0.45560 0.02900
H 	H 	0.12370 0.12370 0.54440 0.02900
H 	H 	0.87630 0.87630 0.54440 0.03200
H 	H 	0.12370 0.87630 0.04440 0.03100
H 	H 	0.87630 0.12370 0.04440 0.03100
C 	C 	0.63680 0.06330 0.78219 0.18100
C 	C 	0.60780 0.14570 0.82450 -0.52800
C 	C 	0.36320 0.93670 0.78219 0.14500
C 	C 	0.39220 0.85430 0.82450 -0.49100
C 	C 	0.93670 0.63680 0.28219 0.14500
C 	C 	0.85430 0.60780 0.32450 -0.49200
C 	C 	0.06330 0.36320 0.28219 0.18200
C 	C 	0.14570 0.39220 0.32450 -0.52700
C 	C 	0.36320 0.06330 0.71781 0.18200
C 	C 	0.39220 0.14570 0.67550 -0.52700
C 	C 	0.63680 0.93670 0.71781 0.14500
C 	C 	0.60780 0.85430 0.67550 -0.49200
C 	C 	0.06330 0.63680 0.21781 0.18100
C 	C 	0.14570 0.60780 0.17550 -0.52800
C 	C 	0.93670 0.36320 0.21781 0.14500
C 	C 	0.85430 0.39220 0.17550 -0.49100
C 	C 	0.36320 0.93670 0.21781 0.14500
C 	C 	0.39220 0.85430 0.17550 -0.49100
C 	C 	0.63680 0.06330 0.21781 0.18100
C 	C 	0.60780 0.14570 0.17550 -0.52800
C 	C 	0.06330 0.36320 0.71781 0.18200
C 	C 	0.14570 0.39220 0.67550 -0.52700
C 	C 	0.93670 0.63680 0.71781 0.14500
C 	C 	0.85430 0.60780 0.67550 -0.49200
C 	C 	0.63680 0.93670 0.28219 0.14500
C 	C 	0.60780 0.85430 0.32450 -0.49200
C 	C 	0.36320 0.06330 0.28219 0.18200
C 	C 	0.39220 0.14570 0.32450 -0.52700
C 	C 	0.93670 0.36320 0.78219 0.14500
C 	C 	0.85430 0.39220 0.82450 -0.49100
C 	C 	0.06330 0.63680 0.78219 0.18100
C 	C 	0.14570 0.60780 0.82450 -0.52800
C 	C 	0.92820 0.07180 0.97390 -0.04100
C 	C 	0.07180 0.92820 0.97390 -0.04100
C 	C 	0.92820 0.92820 0.47390 -0.06400
C 	C 	0.07180 0.07180 0.47390 -0.01700
C 	C 	0.07180 0.07180 0.52610 -0.01700
C 	C 	0.92820 0.92820 0.52610 -0.06400
C 	C 	0.07180 0.92820 0.02610 -0.04100
C 	C 	0.92820 0.07180 0.02610 -0.04100
C 	C 	-0.00000 0.00000 0.88820 0.42700
C 	C 	-0.00000 0.00000 0.94550 -0.06600
C 	C 	0.00000 0.00000 0.38820 0.42600
C 	C 	0.00000 0.00000 0.44550 -0.06700
C 	C 	0.00000 0.00000 0.61180 0.42600
C 	C 	0.00000 0.00000 0.55450 -0.06700
C 	C 	-0.00000 0.00000 0.11180 0.42700
C 	C 	0.00000 0.00000 0.05450 -0.06600
C 	C 	0.56380 0.00000 0.75000 -0.09600
C 	C 	0.43620 0.00000 0.75000 -0.09500
C 	C 	-0.00000 0.56380 0.25000 -0.09600
C 	C 	0.00000 0.43620 0.25000 -0.09500
C 	C 	0.43620 0.00000 0.25000 -0.09500
C 	C 	0.56380 0.00000 0.25000 -0.09600
C 	C 	0.00000 0.43620 0.75000 -0.09500
C 	C 	-0.00000 0.56380 0.75000 -0.09600
N 	N 	0.74760 0.03950 0.77000 -0.29100
N 	N 	0.25240 0.96050 0.77000 -0.30600
N 	N 	0.96050 0.74760 0.27000 -0.30800
N 	N 	0.03950 0.25240 0.27000 -0.28700
N 	N 	0.25240 0.03950 0.73000 -0.28700
N 	N 	0.74760 0.96050 0.73000 -0.30800
N 	N 	0.03950 0.74760 0.23000 -0.29100
N 	N 	0.96050 0.25240 0.23000 -0.30600
N 	N 	0.25240 0.96050 0.23000 -0.30600
N 	N 	0.74760 0.03950 0.23000 -0.29100
N 	N 	0.03950 0.25240 0.73000 -0.28700
N 	N 	0.96050 0.74760 0.73000 -0.30800
N 	N 	0.74760 0.96050 0.27000 -0.30800
N 	N 	0.25240 0.03950 0.27000 -0.28700
N 	N 	0.96050 0.25240 0.77000 -0.30600
N 	N 	0.03950 0.74760 0.77000 -0.29100
O 	O 	0.93080 0.06920 0.86526 -0.56300
O 	O 	0.06920 0.93080 0.86526 -0.56300
O 	O 	0.93080 0.93080 0.36526 -0.58500
O 	O 	0.06920 0.06920 0.36526 -0.54000
O 	O 	0.06920 0.06920 0.63474 -0.54000
O 	O 	0.93080 0.93080 0.63474 -0.58500
O 	O 	0.06920 0.93080 0.13474 -0.56300
O 	O 	0.93080 0.06920 0.13474 -0.56300
O 	O 	0.00000 0.00000 0.75000 -0.94800
O 	O 	0.00000 0.00000 0.25000 -0.94800
