data_crystal

_cell_length_a 8.53110
_cell_length_b 13.99490
_cell_length_c 13.99490
_cell_angle_alpha 120.00000
_cell_angle_beta  90.00000
_cell_angle_gamma 90.00000

_symmetry_space_group_name_	'P 1'
_symmetry_space_group_name_H-M	'P 1'

loop_
_symmetry_equiv_pos_as_xyz
  x,y,z

loop_
_atom_site_label
_atom_site_type_symbol
_atom_site_fract_x
_atom_site_fract_y
_atom_site_fract_z
_atom_site_charge
Al	Al	0.44120 0.49460 0.09730 2.40100
Al	Al	0.44120 0.60270 0.50540 2.40100
Al	Al	0.44120 0.90270 0.39730 2.40000
Al	Al	0.94120 0.39730 0.90270 2.39800
Al	Al	0.94120 0.09730 0.49460 2.39800
Al	Al	0.94120 0.50540 0.60270 2.39800
Al	Al	0.51020 0.33333 0.66666 2.40100
Al	Al	0.01020 0.66667 0.33334 2.40400
P 	P 	0.30030 0.34799 0.86571 0.80900
P 	P 	0.76860 0.18972 0.71929 0.78800
P 	P 	0.30030 0.51772 0.65201 0.80900
P 	P 	0.76860 0.52957 0.81028 0.78800
P 	P 	0.30030 0.13429 0.48228 0.80800
P 	P 	0.76860 0.28071 0.47043 0.78800
P 	P 	0.80030 0.48228 0.13429 0.80100
P 	P 	0.26860 0.47043 0.28071 0.79500
P 	P 	0.80030 0.86571 0.34799 0.80200
P 	P 	0.26860 0.71929 0.18972 0.79300
P 	P 	0.80030 0.65201 0.51772 0.80200
P 	P 	0.26860 0.81028 0.52957 0.79500
H 	H 	0.21680 0.18900 0.85730 0.31100
H 	H 	0.36870 0.16640 0.78610 0.32600
H 	H 	0.20640 0.17790 0.74030 0.34300
H 	H 	0.78780 0.06590 0.77970 0.25400
H 	H 	0.63380 0.04480 0.71080 0.27100
H 	H 	0.64150 0.14220 0.83300 0.25700
H 	H 	0.21680 0.66830 0.81100 0.30800
H 	H 	0.36870 0.61970 0.83360 0.32500
H 	H 	0.20640 0.56240 0.82210 0.34100
H 	H 	0.78780 0.71380 0.93410 0.25700
H 	H 	0.63380 0.66600 0.95520 0.27200
H 	H 	0.64150 0.69080 0.85780 0.25900
H 	H 	0.21680 0.14270 0.33170 0.30700
H 	H 	0.36870 0.21390 0.38030 0.32300
H 	H 	0.20640 0.25970 0.43760 0.33900
H 	H 	0.78780 0.22030 0.28620 0.25700
H 	H 	0.63380 0.28920 0.33400 0.27200
H 	H 	0.64150 0.16700 0.30920 0.25800
H 	H 	0.71680 0.33170 0.14270 0.28500
H 	H 	0.86870 0.38030 0.21390 0.30000
H 	H 	0.70640 0.43760 0.25970 0.31800
H 	H 	0.28780 0.28620 0.22030 0.27900
H 	H 	0.13380 0.33400 0.28920 0.29600
H 	H 	0.14150 0.30920 0.16700 0.28300
H 	H 	0.71680 0.85730 0.18900 0.28700
H 	H 	0.86870 0.78610 0.16640 0.30500
H 	H 	0.70640 0.74030 0.17790 0.32000
H 	H 	0.28780 0.77970 0.06590 0.27400
H 	H 	0.13380 0.71080 0.04480 0.28900
H 	H 	0.14150 0.83300 0.14220 0.27600
H 	H 	0.71680 0.81100 0.66830 0.28600
H 	H 	0.86870 0.83360 0.61970 0.30200
H 	H 	0.70640 0.82210 0.56240 0.31900
H 	H 	0.28780 0.93410 0.71380 0.27700
H 	H 	0.13380 0.95520 0.66600 0.29300
H 	H 	0.14150 0.85780 0.69080 0.28300
C 	C 	0.26950 0.20370 0.80530 -1.01800
C 	C 	0.70010 0.10040 0.76600 -0.87100
C 	C 	0.26950 0.60160 0.79630 -1.01500
C 	C 	0.70010 0.66560 0.89960 -0.87400
C 	C 	0.26950 0.19470 0.39840 -1.01200
C 	C 	0.70010 0.23400 0.33440 -0.87400
C 	C 	0.76950 0.39840 0.19470 -0.98200
C 	C 	0.20010 0.33440 0.23400 -0.90600
C 	C 	0.76950 0.80530 0.20370 -0.98800
C 	C 	0.20010 0.76600 0.10040 -0.89600
C 	C 	0.76950 0.79630 0.60160 -0.98500
C 	C 	0.20010 0.89960 0.66560 -0.90400
O 	O 	0.38280 0.37540 0.79070 -0.66900
O 	O 	0.39220 0.38510 0.97070 -0.81100
O 	O 	0.13930 0.40590 0.89640 -0.79600
O 	O 	0.63120 0.24610 0.70510 -0.70700
O 	O 	0.85630 0.11220 0.61270 -0.82400
O 	O 	0.88590 0.26750 0.80130 -0.86000
O 	O 	0.38280 0.41530 0.62460 -0.66900
O 	O 	0.39220 0.58560 0.61490 -0.81100
O 	O 	0.13930 0.49050 0.59410 -0.80000
O 	O 	0.63120 0.45900 0.75390 -0.70700
O 	O 	0.85630 0.50050 0.88780 -0.82300
O 	O 	0.88590 0.53380 0.73250 -0.85600
O 	O 	0.38280 0.20930 0.58470 -0.66900
O 	O 	0.39220 0.02930 0.41440 -0.81000
O 	O 	0.13930 0.10360 0.50950 -0.79700
O 	O 	0.63120 0.29490 0.54100 -0.70800
O 	O 	0.85630 0.38730 0.49950 -0.82100
O 	O 	0.88590 0.19870 0.46620 -0.85800
O 	O 	0.88280 0.58470 0.20930 -0.68700
O 	O 	0.89220 0.41440 0.02930 -0.82800
O 	O 	0.63930 0.50950 0.10360 -0.82500
O 	O 	0.13120 0.54100 0.29490 -0.68800
O 	O 	0.35630 0.49950 0.38730 -0.80300
O 	O 	0.38590 0.46620 0.19870 -0.83600
O 	O 	0.88280 0.79070 0.37540 -0.68700
O 	O 	0.89220 0.97070 0.38510 -0.82700
O 	O 	0.63930 0.89640 0.40590 -0.82600
O 	O 	0.13120 0.70510 0.24610 -0.69000
O 	O 	0.35630 0.61270 0.11220 -0.80400
O 	O 	0.38590 0.80130 0.26750 -0.83600
O 	O 	0.88280 0.62460 0.41530 -0.68800
O 	O 	0.89220 0.61490 0.58560 -0.83100
O 	O 	0.63930 0.59410 0.49050 -0.82600
O 	O 	0.13120 0.75390 0.45900 -0.68800
O 	O 	0.35630 0.88780 0.50050 -0.80500
O 	O 	0.38590 0.73250 0.53380 -0.83500
