data_crystal

_cell_length_a 5.54180
_cell_length_b 11.88310
_cell_length_c 22.65150
_cell_angle_alpha 101.60700
_cell_angle_beta  90.00000
_cell_angle_gamma 90.00000

_symmetry_space_group_name_	'P 1'
_symmetry_space_group_name_H-M	'P 1'

loop_
_symmetry_equiv_pos_as_xyz
  x,y,z

loop_
_atom_site_label
_atom_site_type_symbol
_atom_site_fract_x
_atom_site_fract_y
_atom_site_fract_z
_atom_site_charge
Ca	Ca	0.76526 0.60227 0.04209 1.51700
Ca	Ca	0.26526 0.89773 0.45791 1.51700
Ca	Ca	0.23474 0.39773 0.95791 1.51700
Ca	Ca	0.73474 0.10227 0.54209 1.51700
H 	H 	0.21230 0.10750 0.11900 0.06900
H 	H 	0.21170 0.97760 0.21410 0.07000
H 	H 	0.57300 0.82400 0.16600 0.07900
H 	H 	0.12360 0.27980 0.09020 0.02100
H 	H 	0.48920 0.82730 0.26720 0.03000
H 	H 	0.13100 0.97430 0.31450 0.01700
H 	H 	0.56150 0.98340 0.05900 0.08900
H 	H 	0.47270 0.15750 0.03180 0.02600
H 	H 	0.71230 0.39250 0.38100 0.07100
H 	H 	0.71170 0.52240 0.28590 0.07100
H 	H 	0.07300 0.67600 0.33400 0.08000
H 	H 	0.62360 0.22020 0.40980 0.01900
H 	H 	0.98920 0.67270 0.23280 0.02800
H 	H 	0.63100 0.52570 0.18550 0.01600
H 	H 	0.06150 0.51660 0.44100 0.09100
H 	H 	0.97270 0.34250 0.46820 0.02300
H 	H 	0.78770 0.89250 0.88100 0.06900
H 	H 	0.78830 0.02240 0.78590 0.07000
H 	H 	0.42700 0.17600 0.83400 0.07900
H 	H 	0.87640 0.72020 0.90980 0.02100
H 	H 	0.51080 0.17270 0.73280 0.03000
H 	H 	0.86900 0.02570 0.68550 0.01700
H 	H 	0.43850 0.01660 0.94100 0.08900
H 	H 	0.52730 0.84250 0.96820 0.02600
H 	H 	0.28770 0.60750 0.61900 0.07100
H 	H 	0.28830 0.47760 0.71410 0.07100
H 	H 	0.92700 0.32400 0.66600 0.08000
H 	H 	0.37640 0.77980 0.59020 0.01900
H 	H 	0.01080 0.32730 0.76720 0.02800
H 	H 	0.36900 0.47430 0.81450 0.01600
H 	H 	0.93850 0.48340 0.55900 0.09100
H 	H 	0.02730 0.65750 0.53180 0.02300
C 	C 	0.75420 0.89194 0.36572 0.44900
C 	C 	0.73290 0.34409 0.03583 0.42100
C 	C 	0.06610 0.11720 0.10049 -0.08500
C 	C 	0.06900 0.94570 0.22476 -0.08800
C 	C 	0.68410 0.85410 0.19575 -0.09400
C 	C 	0.90260 0.89861 0.18105 0.00100
C 	C 	0.01190 0.22020 0.08361 0.04500
C 	C 	0.63540 0.85566 0.25634 0.04500
C 	C 	0.80330 0.89927 0.30059 -0.14300
C 	C 	0.79160 0.23470 0.05689 -0.14300
C 	C 	0.01920 0.94460 0.28482 0.04500
C 	C 	0.89820 0.02872 0.08934 0.00900
C 	C 	0.67450 0.04250 0.06462 -0.09500
C 	C 	0.62220 0.14670 0.04841 0.05200
C 	C 	0.25420 0.60806 0.13428 0.45000
C 	C 	0.23290 0.15591 0.46417 0.42100
C 	C 	0.56610 0.38280 0.39951 -0.09200
C 	C 	0.56900 0.55430 0.27524 -0.09100
C 	C 	0.18410 0.64590 0.30425 -0.09700
C 	C 	0.40260 0.60139 0.31895 0.00400
C 	C 	0.51190 0.27980 0.41639 0.04600
C 	C 	0.13540 0.64434 0.24366 0.05000
C 	C 	0.30330 0.60073 0.19941 -0.14500
C 	C 	0.29160 0.26530 0.44311 -0.14400
C 	C 	0.51920 0.55540 0.21518 0.04700
C 	C 	0.39820 0.47128 0.41066 0.01600
C 	C 	0.17450 0.45750 0.43538 -0.10100
C 	C 	0.12220 0.35330 0.45159 0.05800
C 	C 	0.24580 0.10806 0.63428 0.44900
C 	C 	0.26710 0.65591 0.96417 0.42100
C 	C 	0.93390 0.88280 0.89951 -0.08500
C 	C 	0.93100 0.05430 0.77524 -0.08800
C 	C 	0.31590 0.14590 0.80425 -0.09400
C 	C 	0.09740 0.10139 0.81895 0.00100
C 	C 	0.98810 0.77980 0.91639 0.04500
C 	C 	0.36460 0.14434 0.74366 0.04500
C 	C 	0.19670 0.10073 0.69941 -0.14300
C 	C 	0.20840 0.76530 0.94311 -0.14300
C 	C 	0.98080 0.05540 0.71518 0.04500
C 	C 	0.10180 0.97128 0.91066 0.00900
C 	C 	0.32550 0.95750 0.93538 -0.09500
C 	C 	0.37780 0.85330 0.95159 0.05200
C 	C 	0.74580 0.39194 0.86572 0.45000
C 	C 	0.76710 0.84409 0.53583 0.42100
C 	C 	0.43390 0.61720 0.60049 -0.09200
C 	C 	0.43100 0.44570 0.72476 -0.09100
C 	C 	0.81590 0.35410 0.69575 -0.09700
C 	C 	0.59740 0.39861 0.68105 0.00400
C 	C 	0.48810 0.72020 0.58361 0.04600
C 	C 	0.86460 0.35566 0.75634 0.05000
C 	C 	0.69670 0.39927 0.80059 -0.14500
C 	C 	0.70840 0.73470 0.55689 -0.14400
C 	C 	0.48080 0.44460 0.78482 0.04700
C 	C 	0.60180 0.52872 0.58934 0.01600
C 	C 	0.82550 0.54250 0.56462 -0.10100
C 	C 	0.87780 0.64670 0.54841 0.05800
S 	S 	0.97582 0.89286 0.10471 0.29900
S 	S 	0.47582 0.60714 0.39529 0.29700
S 	S 	0.02418 0.10714 0.89529 0.29900
S 	S 	0.52418 0.39286 0.60471 0.29700
O 	O 	0.51660 0.36840 0.02971 -0.50200
O 	O 	0.23270 0.87936 0.09816 -0.24100
O 	O 	0.81720 0.81014 0.06786 -0.35800
O 	O 	0.53860 0.88210 0.38009 -0.46400
O 	O 	0.90820 0.40727 0.02701 -0.57800
O 	O 	0.93360 0.89351 0.39909 -0.49400
O 	O 	0.01660 0.13160 0.47029 -0.50100
O 	O 	0.73270 0.62064 0.40184 -0.24100
O 	O 	0.31720 0.68986 0.43214 -0.35700
O 	O 	0.03860 0.61790 0.11991 -0.46300
O 	O 	0.40820 0.09273 0.47299 -0.57800
O 	O 	0.43360 0.60649 0.10091 -0.49400
O 	O 	0.48340 0.63160 0.97029 -0.50200
O 	O 	0.76730 0.12064 0.90184 -0.24100
O 	O 	0.18280 0.18986 0.93214 -0.35800
O 	O 	0.46140 0.11790 0.61991 -0.46400
O 	O 	0.09180 0.59273 0.97299 -0.57800
O 	O 	0.06640 0.10649 0.60091 -0.49400
O 	O 	0.98340 0.86840 0.52971 -0.50100
O 	O 	0.26730 0.37936 0.59816 -0.24100
O 	O 	0.68280 0.31014 0.56786 -0.35700
O 	O 	0.96140 0.38210 0.88009 -0.46300
O 	O 	0.59180 0.90727 0.52701 -0.57800
O 	O 	0.56640 0.39351 0.89909 -0.49400
