data_crystal

_cell_length_a 7.67750
_cell_length_b 11.39590
_cell_length_c 11.39590
_cell_angle_alpha 90.00000
_cell_angle_beta  90.00000
_cell_angle_gamma 90.00000

_symmetry_space_group_name_	'P 1'
_symmetry_space_group_name_H-M	'P 1'

loop_
_symmetry_equiv_pos_as_xyz
  x,y,z

loop_
_atom_site_label
_atom_site_type_symbol
_atom_site_fract_x
_atom_site_fract_y
_atom_site_fract_z
_atom_site_charge
Zn	Zn	-0.00000 0.00000 -0.00000 1.19600
Si	Si	0.50000 0.00000 -0.00000 2.25600
H 	H 	0.74200 0.00000 0.79500 0.09200
H 	H 	0.73700 0.00000 0.58500 0.06500
H 	H 	0.74200 0.00000 0.20500 0.04700
H 	H 	0.73700 0.00000 0.41500 0.06100
H 	H 	0.74200 0.20500 -0.00000 0.04700
H 	H 	0.73700 0.41500 -0.00000 0.06100
H 	H 	0.74200 0.79500 -0.00000 0.09100
H 	H 	0.73700 0.58500 -0.00000 0.06400
H 	H 	0.25800 0.00000 0.79500 0.09500
H 	H 	0.26300 0.00000 0.58500 0.06700
H 	H 	0.25800 0.00000 0.20500 0.05100
H 	H 	0.26300 0.00000 0.41500 0.06400
H 	H 	0.25800 0.79500 -0.00000 0.09500
H 	H 	0.26300 0.58500 -0.00000 0.06700
H 	H 	0.25800 0.20500 -0.00000 0.05100
H 	H 	0.26300 0.41500 -0.00000 0.06400
C 	C 	0.00000 -0.00000 0.56680 0.02100
C 	C 	0.00000 -0.00000 0.43320 0.02000
C 	C 	0.00000 0.43320 -0.00000 0.02000
C 	C 	-0.00000 0.56680 -0.00000 0.02100
C 	C 	0.85880 -0.00000 0.75010 0.10900
C 	C 	0.85550 -0.00000 0.62850 -0.05200
C 	C 	0.85880 0.00000 0.24990 0.08800
C 	C 	0.85550 0.00000 0.37150 -0.06200
C 	C 	0.85880 0.24990 -0.00000 0.08800
C 	C 	0.85550 0.37150 -0.00000 -0.06200
C 	C 	0.85880 0.75010 -0.00000 0.10900
C 	C 	0.85550 0.62850 -0.00000 -0.05200
C 	C 	0.14120 -0.00000 0.75010 0.08200
C 	C 	0.14450 -0.00000 0.62850 -0.08000
C 	C 	0.14120 0.00000 0.24990 0.05700
C 	C 	0.14450 0.00000 0.37150 -0.09000
C 	C 	0.14120 0.75010 -0.00000 0.08200
C 	C 	0.14450 0.62850 -0.00000 -0.08000
C 	C 	0.14120 0.24990 -0.00000 0.05700
C 	C 	0.14450 0.37150 -0.00000 -0.09000
N 	N 	0.00000 -0.00000 0.81070 -0.18800
N 	N 	0.00000 0.00000 0.18930 -0.25400
N 	N 	0.00000 0.18930 -0.00000 -0.25400
N 	N 	-0.00000 0.81070 -0.00000 -0.18800
F 	F 	0.72880 0.00000 -0.00000 -0.85800
F 	F 	0.27120 0.00000 -0.00000 -0.86800
F 	F 	0.50000 0.89700 0.89700 -0.38500
F 	F 	0.50000 0.10300 0.10300 -0.67500
F 	F 	0.50000 0.10300 0.89700 -0.52500
F 	F 	0.50000 0.89700 0.10300 -0.52500
