data_crystal

_cell_length_a 19.01960
_cell_length_b 19.01960
_cell_length_c 19.01960
_cell_angle_alpha 109.47100
_cell_angle_beta  109.47100
_cell_angle_gamma 109.47100

_symmetry_space_group_name_	'P 1'
_symmetry_space_group_name_H-M	'P 1'

loop_
_symmetry_equiv_pos_as_xyz
  x,y,z

loop_
_atom_site_label
_atom_site_type_symbol
_atom_site_fract_x
_atom_site_fract_y
_atom_site_fract_z
_atom_site_charge
Zn	Zn	0.12500 0.25000 0.87500 1.16900
Zn	Zn	0.87500 0.75000 0.12500 1.17000
Zn	Zn	0.37500 0.75000 0.62500 1.17000
Zn	Zn	0.62500 0.25000 0.37500 1.16900
Zn	Zn	0.25000 0.12500 0.37500 1.16400
Zn	Zn	0.75000 0.87500 0.62500 1.17600
Zn	Zn	0.75000 0.37500 0.12500 1.16600
Zn	Zn	0.25000 0.62500 0.87500 1.17500
Zn	Zn	0.87500 0.62500 0.75000 1.17600
Zn	Zn	0.12500 0.37500 0.25000 1.16400
Zn	Zn	0.62500 0.87500 0.25000 1.17400
Zn	Zn	0.37500 0.12500 0.75000 1.16600
In	In	-0.00000 0.00000 -0.00000 1.85100
In	In	0.50000 0.00000 0.50000 1.90700
In	In	0.50000 0.50000 -0.00000 1.90700
In	In	0.00000 0.50000 0.50000 1.90800
In	In	-0.00000 0.50000 -0.00000 1.88000
In	In	0.50000 0.00000 -0.00000 1.87900
In	In	0.50000 0.50000 0.50000 1.93600
In	In	0.00000 0.00000 0.50000 1.88000
H 	H 	0.05560 0.16690 0.96770 -0.05300
H 	H 	0.94440 0.83310 0.03230 -0.06500
H 	H 	0.44440 0.91210 0.61130 -0.03300
H 	H 	0.55560 0.08790 0.38870 -0.09100
H 	H 	0.30080 0.33310 0.88870 -0.10200
H 	H 	0.69920 0.66690 0.11130 -0.02200
H 	H 	0.19920 0.58790 0.53230 -0.06400
H 	H 	0.80080 0.41210 0.46770 -0.05900
H 	H 	0.08790 0.03230 0.19920 -0.12400
H 	H 	0.91210 0.96770 0.80080 -0.00100
H 	H 	0.83310 0.38870 0.30080 -0.05800
H 	H 	0.16690 0.61130 0.69920 -0.06500
H 	H 	0.41210 0.11130 0.44440 -0.02300
H 	H 	0.58790 0.88870 0.55560 -0.09900
H 	H 	0.66690 0.46770 0.05560 -0.08700
H 	H 	0.33310 0.53230 0.94440 -0.03600
H 	H 	0.88870 0.80080 0.83310 -0.08900
H 	H 	0.11130 0.19920 0.16690 -0.02700
H 	H 	0.53230 0.69920 0.08790 -0.09100
H 	H 	0.46770 0.30080 0.91210 -0.03100
H 	H 	0.96770 0.55560 0.66690 -0.02900
H 	H 	0.03230 0.44440 0.33310 -0.09500
H 	H 	0.61130 0.94440 0.41210 -0.03600
H 	H 	0.38870 0.05560 0.58790 -0.08800
H 	H 	0.05560 0.38870 0.08790 -0.11700
H 	H 	0.94440 0.61130 0.91210 -0.00800
H 	H 	0.44440 0.03230 0.83310 -0.09000
H 	H 	0.55560 0.96770 0.16690 -0.03100
H 	H 	0.30080 0.46770 0.41210 -0.06200
H 	H 	0.69920 0.53230 0.58790 -0.06200
H 	H 	0.19920 0.11130 0.66690 -0.02400
H 	H 	0.80080 0.88870 0.33310 -0.09600
H 	H 	0.08790 0.55560 0.88870 -0.12800
H 	H 	0.91210 0.44440 0.11130 0.00600
H 	H 	0.83310 0.94440 0.53230 -0.03300
H 	H 	0.16690 0.05560 0.46770 -0.09000
H 	H 	0.41210 0.80080 0.96770 -0.02600
H 	H 	0.58790 0.19920 0.03230 -0.09800
H 	H 	0.66690 0.69920 0.61130 -0.06100
H 	H 	0.33310 0.30080 0.38870 -0.06400
H 	H 	0.88870 0.58790 0.05560 -0.12400
H 	H 	0.11130 0.41210 0.94440 0.00200
H 	H 	0.53230 0.33310 0.44440 -0.06300
H 	H 	0.46770 0.66690 0.55560 -0.06100
H 	H 	0.96770 0.91210 0.30080 -0.00100
H 	H 	0.03230 0.08790 0.69920 -0.12100
H 	H 	0.61130 0.16690 0.19920 -0.06600
H 	H 	0.38870 0.83310 0.80080 -0.05600
H 	H 	0.10440 0.98420 0.88860 0.17900
H 	H 	0.89560 0.01580 0.11140 -0.17800
H 	H 	0.39560 0.78420 0.37980 -0.00100
H 	H 	0.60440 0.21580 0.62020 -0.00400
H 	H 	0.40440 0.51580 0.12020 -0.03100
H 	H 	0.59560 0.48420 0.87980 0.02500
H 	H 	0.09560 0.71580 0.61140 -0.02900
H 	H 	0.90440 0.28420 0.38860 0.02600
H 	H 	0.21580 0.11140 0.09560 -0.04300
H 	H 	0.78420 0.88860 0.90440 0.03800
H 	H 	0.01580 0.62020 0.40440 -0.19200
H 	H 	0.98420 0.37980 0.59560 0.18800
H 	H 	0.28420 0.87980 0.39560 0.02400
H 	H 	0.71580 0.12020 0.60440 -0.02700
H 	H 	0.48420 0.38860 0.10440 -0.01900
H 	H 	0.51580 0.61140 0.89560 0.01300
H 	H 	0.12020 0.90440 0.01580 -0.18600
H 	H 	0.87980 0.09560 0.98420 0.19000
H 	H 	0.61140 0.59560 0.21580 -0.00400
H 	H 	0.38860 0.40440 0.78420 -0.00100
H 	H 	0.88860 0.60440 0.48420 0.00600
H 	H 	0.11140 0.39560 0.51580 -0.01100
H 	H 	0.37980 0.89560 0.28420 0.01100
H 	H 	0.62020 0.10440 0.71580 -0.01500
H 	H 	0.10440 0.62020 0.21580 -0.01800
H 	H 	0.89560 0.37980 0.78420 0.01400
H 	H 	0.39560 0.11140 0.01580 -0.21500
H 	H 	0.60440 0.88860 0.98420 0.19700
H 	H 	0.40440 0.38860 0.28420 -0.00500
H 	H 	0.59560 0.61140 0.71580 -0.00100
H 	H 	0.09560 0.87980 0.48420 -0.00300
H 	H 	0.90440 0.12020 0.51580 0.00100
H 	H 	0.21580 0.60440 0.12020 -0.03200
H 	H 	0.78420 0.39560 0.87980 0.02800
H 	H 	0.01580 0.89560 0.61140 -0.16800
H 	H 	0.98420 0.10440 0.38860 0.18100
H 	H 	0.28420 0.90440 0.88860 0.03400
H 	H 	0.71580 0.09560 0.11140 -0.03800
H 	H 	0.48420 0.59560 0.37980 -0.00400
H 	H 	0.51580 0.40440 0.62020 -0.00200
H 	H 	0.12020 0.71580 0.10440 -0.04200
H 	H 	0.87980 0.28420 0.89560 0.03800
H 	H 	0.61140 0.51580 0.39560 -0.00300
H 	H 	0.38860 0.48420 0.60440 -0.00300
H 	H 	0.88860 0.78420 0.40440 0.00800
H 	H 	0.11140 0.21580 0.59560 -0.01200
H 	H 	0.37980 0.98420 0.09560 0.16700
H 	H 	0.62020 0.01580 0.90440 -0.15500
H 	H 	0.14960 0.08370 0.83050 -0.08200
H 	H 	0.85040 0.91630 0.16950 0.07300
H 	H 	0.35040 0.68090 0.43410 -0.00500
H 	H 	0.64960 0.31910 0.56590 -0.00300
H 	H 	0.24680 0.41630 0.06590 0.02500
H 	H 	0.75320 0.58370 0.93410 -0.03100
H 	H 	0.25320 0.81910 0.66950 0.01200
H 	H 	0.74680 0.18090 0.33050 -0.02000
H 	H 	0.31910 0.16950 0.25320 -0.00500
H 	H 	0.68090 0.83050 0.74680 -0.00300
H 	H 	0.91630 0.56590 0.24680 0.07300
H 	H 	0.08370 0.43410 0.75320 -0.08100
H 	H 	0.18090 0.93410 0.35040 -0.04700
H 	H 	0.81910 0.06590 0.64960 0.03900
H 	H 	0.58370 0.33050 0.14960 -0.00800
H 	H 	0.41630 0.66950 0.85040 0.00000
H 	H 	0.06590 0.74680 0.91630 0.10000
H 	H 	0.93410 0.25320 0.08370 -0.11100
H 	H 	0.66950 0.75320 0.31910 -0.00200
H 	H 	0.33050 0.24680 0.68090 -0.00600
H 	H 	0.83050 0.64960 0.58370 -0.00200
H 	H 	0.16950 0.35040 0.41630 -0.00600
H 	H 	0.43410 0.85040 0.18090 -0.01600
H 	H 	0.56590 0.14960 0.81910 0.00900
H 	H 	0.14960 0.56590 0.31910 -0.00700
H 	H 	0.85040 0.43410 0.68090 -0.00100
H 	H 	0.35040 0.16950 0.91630 0.07800
H 	H 	0.64960 0.83050 0.08370 -0.08000
H 	H 	0.24680 0.33050 0.18090 -0.02100
H 	H 	0.75320 0.66950 0.81910 0.01300
H 	H 	0.25320 0.93410 0.58370 -0.03200
H 	H 	0.74680 0.06590 0.41630 0.02300
H 	H 	0.31910 0.64960 0.06590 0.02600
H 	H 	0.68090 0.35040 0.93410 -0.03300
H 	H 	0.91630 0.85040 0.66950 0.07400
H 	H 	0.08370 0.14960 0.33050 -0.08800
H 	H 	0.18090 0.74680 0.83050 -0.01700
H 	H 	0.81910 0.25320 0.16950 0.01000
H 	H 	0.58370 0.75320 0.43410 -0.00300
H 	H 	0.41630 0.24680 0.56590 -0.00500
H 	H 	0.06590 0.81910 0.14960 0.03600
H 	H 	0.93410 0.18090 0.85040 -0.04100
H 	H 	0.66950 0.41630 0.35040 -0.00400
H 	H 	0.33050 0.58370 0.64960 -0.00400
H 	H 	0.83050 0.68090 0.24680 -0.00400
H 	H 	0.16950 0.31910 0.75320 -0.00400
H 	H 	0.43410 0.08370 0.25320 -0.08500
H 	H 	0.56590 0.91630 0.74680 0.07100
C 	C 	0.07281 0.13255 0.94084 0.07200
C 	C 	0.92719 0.86745 0.05916 0.10300
C 	C 	0.42719 0.86803 0.55974 0.08900
C 	C 	0.57281 0.13197 0.44026 0.08500
C 	C 	0.30829 0.36745 0.94026 0.22700
C 	C 	0.69171 0.63255 0.05974 -0.04900
C 	C 	0.19171 0.63197 0.55916 0.08600
C 	C 	0.80829 0.36803 0.44084 0.08800
C 	C 	0.13197 0.05916 0.19171 0.07200
C 	C 	0.86803 0.94084 0.80829 0.10000
C 	C 	0.86745 0.44026 0.30829 0.09700
C 	C 	0.13255 0.55974 0.69171 0.07700
C 	C 	0.36803 0.05974 0.42719 -0.05100
C 	C 	0.63197 0.94026 0.57281 0.22000
C 	C 	0.63255 0.44084 0.07281 0.07000
C 	C 	0.36745 0.55916 0.92719 0.10300
C 	C 	0.94026 0.80829 0.86745 0.22100
C 	C 	0.05974 0.19171 0.13255 -0.06500
C 	C 	0.55916 0.69171 0.13197 0.08400
C 	C 	0.44084 0.30829 0.86803 0.08900
C 	C 	0.94084 0.57281 0.63255 0.09700
C 	C 	0.05916 0.42719 0.36745 0.07500
C 	C 	0.55974 0.92719 0.36803 0.10300
C 	C 	0.44026 0.07281 0.63197 0.07100
C 	C 	0.07281 0.44026 0.13197 0.06800
C 	C 	0.92719 0.55974 0.86803 0.10500
C 	C 	0.42719 0.05916 0.86745 0.08700
C 	C 	0.57281 0.94084 0.13255 0.08600
C 	C 	0.30829 0.44084 0.36803 0.08600
C 	C 	0.69171 0.55916 0.63197 0.08800
C 	C 	0.19171 0.05974 0.63255 -0.05000
C 	C 	0.80829 0.94026 0.36745 0.21600
C 	C 	0.13197 0.57281 0.94026 0.22400
C 	C 	0.86803 0.42719 0.05974 -0.04500
C 	C 	0.86745 0.92719 0.55916 0.11300
C 	C 	0.13255 0.07281 0.44084 0.06000
C 	C 	0.36803 0.80829 0.94084 0.09800
C 	C 	0.63197 0.19171 0.05916 0.07500
C 	C 	0.63255 0.69171 0.55974 0.08700
C 	C 	0.36745 0.30829 0.44026 0.08600
C 	C 	0.94026 0.63197 0.07281 0.20200
C 	C 	0.05974 0.36803 0.92719 -0.02300
C 	C 	0.55916 0.36745 0.42719 0.08600
C 	C 	0.44084 0.63255 0.57281 0.08800
C 	C 	0.94084 0.86803 0.30829 0.09800
C 	C 	0.05916 0.13197 0.69171 0.07400
C 	C 	0.55974 0.13255 0.19171 0.07400
C 	C 	0.44026 0.86745 0.80829 0.09900
C 	C 	0.10395 0.03382 0.89709 -0.30500
C 	C 	0.89605 0.96618 0.10291 0.29000
C 	C 	0.39605 0.79314 0.42987 -0.00800
C 	C 	0.60395 0.20686 0.57013 -0.00600
C 	C 	0.36327 0.46618 0.07013 0.04500
C 	C 	0.63673 0.53382 0.92987 -0.05600
C 	C 	0.13673 0.70686 0.60291 0.00300
C 	C 	0.86327 0.29314 0.39709 -0.01700
C 	C 	0.20686 0.10291 0.13673 -0.01600
C 	C 	0.79314 0.89709 0.86327 -0.00000
C 	C 	0.96618 0.57013 0.36327 0.30400
C 	C 	0.03382 0.42987 0.63673 -0.31900
C 	C 	0.29314 0.92987 0.39605 -0.06400
C 	C 	0.70686 0.07013 0.60395 0.04700
C 	C 	0.53382 0.39709 0.10395 -0.01600
C 	C 	0.46618 0.60291 0.89605 0.00200
C 	C 	0.07013 0.86327 0.96618 0.34500
C 	C 	0.92987 0.13673 0.03382 -0.36700
C 	C 	0.60291 0.63673 0.20686 -0.00600
C 	C 	0.39709 0.36327 0.79314 -0.00700
C 	C 	0.89709 0.60395 0.53382 0.00600
C 	C 	0.10291 0.39605 0.46618 -0.02000
C 	C 	0.42987 0.89605 0.29314 -0.00300
C 	C 	0.57013 0.10395 0.70686 -0.01000
C 	C 	0.10395 0.57013 0.20686 -0.01600
C 	C 	0.89605 0.42987 0.79314 0.00200
C 	C 	0.39605 0.10291 0.96618 0.31500
C 	C 	0.60395 0.89709 0.03382 -0.30600
C 	C 	0.36327 0.39709 0.29314 -0.01200
C 	C 	0.63673 0.60291 0.70686 -0.00100
C 	C 	0.13673 0.92987 0.53382 -0.05200
C 	C 	0.86327 0.07013 0.46618 0.03700
C 	C 	0.20686 0.60395 0.07013 0.04400
C 	C 	0.79314 0.39605 0.92987 -0.05800
C 	C 	0.96618 0.89605 0.60291 0.29800
C 	C 	0.03382 0.10395 0.39709 -0.33700
C 	C 	0.29314 0.86327 0.89709 -0.00400
C 	C 	0.70686 0.13673 0.10291 -0.01000
C 	C 	0.53382 0.63673 0.42987 -0.00600
C 	C 	0.46618 0.36327 0.57013 -0.00700
C 	C 	0.07013 0.70686 0.10395 0.03700
C 	C 	0.92987 0.29314 0.89605 -0.05000
C 	C 	0.60291 0.46618 0.39605 -0.00700
C 	C 	0.39709 0.53382 0.60395 -0.00600
C 	C 	0.89709 0.79314 0.36327 0.00500
C 	C 	0.10291 0.20686 0.63673 -0.02000
C 	C 	0.42987 0.03382 0.13673 -0.32800
C 	C 	0.57013 0.96618 0.86327 0.29000
C 	C 	0.12709 0.08676 0.86597 0.13700
C 	C 	0.87291 0.91324 0.13403 -0.14400
C 	C 	0.37291 0.73888 0.45967 -0.00400
C 	C 	0.62709 0.26112 0.54033 -0.00700
C 	C 	0.27921 0.41324 0.04033 -0.16800
C 	C 	0.72079 0.58676 0.95967 0.14900
C 	C 	0.22079 0.76112 0.63403 -0.01800
C 	C 	0.77921 0.23888 0.36597 0.00700
C 	C 	0.26112 0.13403 0.22079 -0.02600
C 	C 	0.73888 0.86597 0.77921 0.01400
C 	C 	0.91324 0.54033 0.27921 -0.15600
C 	C 	0.08676 0.45967 0.72079 0.14500
C 	C 	0.23888 0.95967 0.37291 0.15600
C 	C 	0.76112 0.04033 0.62709 -0.15800
C 	C 	0.58676 0.36597 0.12709 -0.01900
C 	C 	0.41324 0.63403 0.87291 0.00700
C 	C 	0.04033 0.77921 0.91324 -0.28900
C 	C 	0.95967 0.22079 0.08676 0.29500
C 	C 	0.63403 0.72079 0.26112 -0.00800
C 	C 	0.36597 0.27921 0.73888 -0.00300
C 	C 	0.86597 0.62709 0.58676 0.00300
C 	C 	0.13403 0.37291 0.41324 -0.01500
C 	C 	0.45967 0.87291 0.23888 0.01100
C 	C 	0.54033 0.12709 0.76112 -0.02200
C 	C 	0.12709 0.54033 0.26112 -0.02100
C 	C 	0.87291 0.45967 0.73888 0.01000
C 	C 	0.37291 0.13403 0.91324 -0.17500
C 	C 	0.62709 0.86597 0.08676 0.15300
C 	C 	0.27921 0.36597 0.23888 -0.00300
C 	C 	0.72079 0.63403 0.76112 -0.00900
C 	C 	0.22079 0.95967 0.58676 0.14000
C 	C 	0.77921 0.04033 0.41324 -0.14700
C 	C 	0.26112 0.62709 0.04033 -0.16500
C 	C 	0.73888 0.37291 0.95967 0.15200
C 	C 	0.91324 0.87291 0.63403 -0.13500
C 	C 	0.08676 0.12709 0.36597 0.13700
C 	C 	0.23888 0.77921 0.86597 0.01500
C 	C 	0.76112 0.22079 0.13403 -0.02600
C 	C 	0.58676 0.72079 0.45967 -0.00500
C 	C 	0.41324 0.27921 0.54033 -0.00700
C 	C 	0.04033 0.76112 0.12709 -0.17000
C 	C 	0.95967 0.23888 0.87291 0.15800
C 	C 	0.63403 0.41324 0.37291 -0.00700
C 	C 	0.36597 0.58676 0.62709 -0.00500
C 	C 	0.86597 0.73888 0.27921 0.00400
C 	C 	0.13403 0.26112 0.72079 -0.01500
C 	C 	0.45967 0.08676 0.22079 0.14200
C 	C 	0.54033 0.91324 0.77921 -0.14000
N 	N 	0.10700 0.15015 0.89357 -0.31500
N 	N 	0.89300 0.84985 0.10643 -0.26700
N 	N 	0.39300 0.78657 0.54315 -0.28900
N 	N 	0.60700 0.21343 0.45685 -0.29300
N 	N 	0.24342 0.34985 0.95685 -0.24100
N 	N 	0.75658 0.65015 0.04315 -0.33800
N 	N 	0.25658 0.71343 0.60643 -0.28800
N 	N 	0.74342 0.28657 0.39357 -0.29400
N 	N 	0.21343 0.10643 0.25658 -0.30100
N 	N 	0.78657 0.89357 0.74342 -0.28200
N 	N 	0.84985 0.45685 0.24342 -0.26600
N 	N 	0.15015 0.54315 0.75658 -0.31600
N 	N 	0.28657 0.04315 0.39300 -0.34300
N 	N 	0.71343 0.95685 0.60700 -0.24200
N 	N 	0.65015 0.39357 0.10700 -0.29800
N 	N 	0.34985 0.60643 0.89300 -0.28400
N 	N 	0.95685 0.74342 0.84985 -0.22100
N 	N 	0.04315 0.25658 0.15015 -0.36500
N 	N 	0.60643 0.75658 0.21343 -0.29300
N 	N 	0.39357 0.24342 0.78657 -0.28900
N 	N 	0.89357 0.60700 0.65015 -0.28300
N 	N 	0.10643 0.39300 0.34985 -0.29900
N 	N 	0.54315 0.89300 0.28657 -0.28600
N 	N 	0.45685 0.10700 0.71343 -0.29600
N 	N 	0.10700 0.45685 0.21343 -0.30100
N 	N 	0.89300 0.54315 0.78657 -0.28200
N 	N 	0.39300 0.10643 0.84985 -0.27100
N 	N 	0.60700 0.89357 0.15015 -0.30900
N 	N 	0.24342 0.39357 0.28657 -0.29400
N 	N 	0.75658 0.60643 0.71343 -0.28800
N 	N 	0.25658 0.04315 0.65015 -0.33800
N 	N 	0.74342 0.95685 0.34985 -0.24500
N 	N 	0.21343 0.60700 0.95685 -0.24400
N 	N 	0.78657 0.39300 0.04315 -0.33700
N 	N 	0.84985 0.89300 0.60643 -0.25900
N 	N 	0.15015 0.10700 0.39357 -0.32500
N 	N 	0.28657 0.74342 0.89357 -0.28600
N 	N 	0.71343 0.25658 0.10643 -0.29600
N 	N 	0.65015 0.75658 0.54315 -0.29000
N 	N 	0.34985 0.24342 0.45685 -0.29200
N 	N 	0.95685 0.71343 0.10700 -0.25000
N 	N 	0.04315 0.28657 0.89300 -0.33100
N 	N 	0.60643 0.34985 0.39300 -0.29200
N 	N 	0.39357 0.65015 0.60700 -0.29000
N 	N 	0.89357 0.78657 0.24342 -0.28200
N 	N 	0.10643 0.21343 0.75658 -0.30000
N 	N 	0.54315 0.15015 0.25658 -0.31700
N 	N 	0.45685 0.84985 0.74342 -0.26600
N 	N 	0.06922 0.06300 0.94512 -0.29300
N 	N 	0.93078 0.93700 0.05488 -0.34200
N 	N 	0.43078 0.87590 0.49378 -0.30800
N 	N 	0.56922 0.12410 0.50622 -0.34300
N 	N 	0.38212 0.43700 0.00622 -0.42400
N 	N 	0.61788 0.56300 0.99378 -0.23000
N 	N 	0.11788 0.62410 0.55488 -0.34500
N 	N 	0.88212 0.37590 0.44512 -0.30600
N 	N 	0.12410 0.05488 0.11788 -0.38200
N 	N 	0.87590 0.94512 0.88212 -0.26100
N 	N 	0.93700 0.50622 0.38212 -0.34600
N 	N 	0.06300 0.49378 0.61788 -0.30500
N 	N 	0.37590 0.99378 0.43078 -0.23000
N 	N 	0.62410 0.00622 0.56922 -0.41900
N 	N 	0.56300 0.44512 0.06922 -0.34800
N 	N 	0.43700 0.55488 0.93078 -0.30300
N 	N 	0.00622 0.88212 0.93700 -0.40800
N 	N 	0.99378 0.11788 0.06300 -0.21900
N 	N 	0.55488 0.61788 0.12410 -0.34400
N 	N 	0.44512 0.38212 0.87590 -0.30700
N 	N 	0.94512 0.56922 0.56300 -0.30100
N 	N 	0.05488 0.43078 0.43700 -0.35100
N 	N 	0.49378 0.93078 0.37590 -0.30300
N 	N 	0.50622 0.06922 0.62410 -0.34800
N 	N 	0.06922 0.50622 0.12410 -0.36200
N 	N 	0.93078 0.49378 0.87590 -0.28400
N 	N 	0.43078 0.05488 0.93700 -0.36900
N 	N 	0.56922 0.94512 0.06300 -0.27600
N 	N 	0.38212 0.44512 0.37590 -0.32900
N 	N 	0.61788 0.55488 0.62410 -0.33000
N 	N 	0.11788 0.99378 0.56300 -0.24600
N 	N 	0.88212 0.00622 0.43700 -0.39400
N 	N 	0.12410 0.56922 0.00622 -0.43600
N 	N 	0.87590 0.43078 0.99378 -0.21200
N 	N 	0.93700 0.93078 0.55488 -0.32100
N 	N 	0.06300 0.06922 0.44512 -0.32200
N 	N 	0.37590 0.88212 0.94512 -0.27800
N 	N 	0.62410 0.11788 0.05488 -0.36800
N 	N 	0.56300 0.61788 0.49378 -0.32900
N 	N 	0.43700 0.38212 0.50622 -0.32900
N 	N 	0.00622 0.62410 0.06922 -0.43600
N 	N 	0.99378 0.37590 0.93078 -0.21100
N 	N 	0.55488 0.43700 0.43078 -0.32900
N 	N 	0.44512 0.56300 0.56922 -0.32900
N 	N 	0.94512 0.87590 0.38212 -0.28200
N 	N 	0.05488 0.12410 0.61788 -0.36500
N 	N 	0.49378 0.06300 0.11788 -0.32000
N 	N 	0.50622 0.93700 0.88212 -0.32300
