data_crystal

_cell_length_a 9.74050
_cell_length_b 14.93600
_cell_length_c 15.26600
_cell_angle_alpha 90.00000
_cell_angle_beta  90.00000
_cell_angle_gamma 98.62000

_symmetry_space_group_name_	'P 1'
_symmetry_space_group_name_H-M	'P 1'

loop_
_symmetry_equiv_pos_as_xyz
  x,y,z

loop_
_atom_site_label
_atom_site_type_symbol
_atom_site_fract_x
_atom_site_fract_y
_atom_site_fract_z
_atom_site_charge
Zn	Zn	0.45317 0.73898 0.07607 1.17100
Zn	Zn	0.54683 0.26102 0.92393 1.17100
Zn	Zn	0.04683 0.76102 0.57607 1.16900
Zn	Zn	0.95317 0.23898 0.42393 1.16900
Zn	Zn	0.58453 0.92052 0.72605 1.17000
Zn	Zn	0.41547 0.07948 0.27395 1.17000
Zn	Zn	0.91547 0.57948 0.22605 1.17000
Zn	Zn	0.08453 0.42052 0.77395 1.17000
H 	H 	0.51660 0.89940 0.93180 -0.06800
H 	H 	0.48340 0.10060 0.06820 -0.06800
H 	H 	0.98340 0.60060 0.43180 -0.06800
H 	H 	0.01660 0.39940 0.56820 -0.06800
H 	H 	0.55240 0.64440 0.91190 -0.00200
H 	H 	0.44760 0.35560 0.08810 -0.00200
H 	H 	0.94760 0.85560 0.41190 -0.00100
H 	H 	0.05240 0.14440 0.58810 -0.00100
H 	H 	0.59620 0.71450 0.76830 -0.00500
H 	H 	0.40380 0.28550 0.23170 -0.00500
H 	H 	0.90380 0.78550 0.26830 -0.00600
H 	H 	0.09620 0.21450 0.73170 -0.00600
H 	H 	0.89640 0.04040 0.70540 -0.00700
H 	H 	0.10360 0.95960 0.29460 -0.00700
H 	H 	0.60360 0.45960 0.20540 -0.00500
H 	H 	0.39640 0.54040 0.79460 -0.00500
H 	H 	0.75170 0.79950 0.62230 -0.06700
H 	H 	0.24830 0.20050 0.37770 -0.06700
H 	H 	0.74830 0.70050 0.12230 -0.06700
H 	H 	0.25170 0.29950 0.87770 -0.06700
H 	H 	0.53330 0.91350 0.51420 -0.00200
H 	H 	0.46670 0.08650 0.48580 -0.00200
H 	H 	0.96670 0.58650 0.01420 -0.00400
H 	H 	0.03330 0.41350 0.98580 -0.00400
H 	H 	0.39740 0.06540 0.66610 -0.00200
H 	H 	0.60260 0.93460 0.33390 -0.00200
H 	H 	0.10260 0.43460 0.16610 -0.00300
H 	H 	0.89740 0.56540 0.83390 -0.00300
H 	H 	0.19290 0.64730 0.95090 -0.00700
H 	H 	0.80710 0.35270 0.04910 -0.00700
H 	H 	0.30710 0.85270 0.45090 -0.00600
H 	H 	0.69290 0.14730 0.54910 -0.00600
H 	H 	0.20850 0.69560 0.20200 -0.06500
H 	H 	0.79150 0.30440 0.79800 -0.06500
H 	H 	0.29150 0.80440 0.70200 -0.06500
H 	H 	0.70850 0.19560 0.29800 -0.06500
H 	H 	0.41060 0.52930 0.14610 -0.00100
H 	H 	0.58940 0.47070 0.85390 -0.00100
H 	H 	0.08940 0.97070 0.64610 -0.00500
H 	H 	0.91060 0.02930 0.35390 -0.00500
H 	H 	0.36260 0.92490 0.12910 -0.07000
H 	H 	0.63740 0.07510 0.87090 -0.07000
H 	H 	0.13740 0.57510 0.62910 -0.07000
H 	H 	0.86260 0.42490 0.37090 -0.07000
H 	H 	0.62560 0.79700 0.25200 -0.00300
H 	H 	0.37440 0.20300 0.74800 -0.00300
H 	H 	0.87440 0.70300 0.75200 -0.00300
H 	H 	0.12560 0.29700 0.24800 -0.00300
C 	C 	0.53008 0.84328 0.90801 0.10600
C 	C 	0.46992 0.15672 0.09199 0.10600
C 	C 	0.96992 0.65672 0.40801 0.10600
C 	C 	0.03008 0.34328 0.59199 0.10600
C 	C 	0.54922 0.70551 0.89866 -0.01300
C 	C 	0.45078 0.29449 0.10134 -0.01300
C 	C 	0.95078 0.79449 0.39866 -0.01300
C 	C 	0.04922 0.20551 0.60134 -0.01300
C 	C 	0.57370 0.74432 0.81934 -0.00900
C 	C 	0.42630 0.25568 0.18066 -0.00900
C 	C 	0.92630 0.75568 0.31934 -0.00900
C 	C 	0.07370 0.24432 0.68066 -0.00900
C 	C 	0.88930 0.98180 0.68162 -0.00500
C 	C 	0.11070 0.01820 0.31838 -0.00500
C 	C 	0.61070 0.51820 0.18162 -0.00600
C 	C 	0.38930 0.48180 0.81838 -0.00600
C 	C 	0.81368 0.85207 0.63613 0.10000
C 	C 	0.18632 0.14793 0.36387 0.10000
C 	C 	0.68632 0.64793 0.13613 0.10000
C 	C 	0.31368 0.35207 0.86387 0.10000
C 	C 	0.45646 0.88375 0.54530 -0.00900
C 	C 	0.54354 0.11625 0.45470 -0.00900
C 	C 	0.04354 0.61625 0.04530 -0.00600
C 	C 	0.95646 0.38375 0.95470 -0.00600
C 	C 	0.44410 0.08382 0.71842 -0.00900
C 	C 	0.55590 0.91618 0.28158 -0.00900
C 	C 	0.05590 0.41618 0.21842 -0.00800
C 	C 	0.94410 0.58382 0.78158 -0.00800
C 	C 	0.16800 0.65047 0.01015 -0.00800
C 	C 	0.83200 0.34953 0.98985 -0.00800
C 	C 	0.33200 0.84953 0.51015 -0.01000
C 	C 	0.66800 0.15047 0.48985 -0.01000
C 	C 	0.17558 0.67618 0.14622 0.09200
C 	C 	0.82442 0.32382 0.85378 0.09200
C 	C 	0.32442 0.82382 0.64622 0.09200
C 	C 	0.67558 0.17618 0.35378 0.09200
C 	C 	0.50403 0.55661 0.14793 -0.00800
C 	C 	0.49597 0.44339 0.85207 -0.00800
C 	C 	0.99597 0.94339 0.64793 -0.00300
C 	C 	0.00403 0.05661 0.35207 -0.00300
C 	C 	0.42709 0.91013 0.17049 0.09700
C 	C 	0.57291 0.08987 0.82951 0.09700
C 	C 	0.07291 0.58987 0.67049 0.09700
C 	C 	0.92709 0.41013 0.32951 0.09700
C 	C 	0.56909 0.84016 0.23624 -0.01000
C 	C 	0.43091 0.15984 0.76376 -0.01000
C 	C 	0.93091 0.65984 0.73624 -0.00800
C 	C 	0.06909 0.34016 0.26376 -0.00800
N 	N 	0.56081 0.83356 0.82495 -0.29800
N 	N 	0.43919 0.16644 0.17505 -0.29800
N 	N 	0.93919 0.66644 0.32495 -0.29900
N 	N 	0.06081 0.33356 0.67505 -0.29900
N 	N 	0.51939 0.76862 0.95578 -0.30000
N 	N 	0.48061 0.23138 0.04422 -0.30000
N 	N 	0.98061 0.73138 0.45578 -0.30000
N 	N 	0.01939 0.26862 0.54422 -0.30000
N 	N 	0.77228 0.92215 0.67526 -0.29700
N 	N 	0.22772 0.07785 0.32474 -0.29700
N 	N 	0.72772 0.57785 0.17526 -0.29700
N 	N 	0.27228 0.42215 0.82474 -0.29700
N 	N 	0.45216 0.86801 0.63279 -0.28700
N 	N 	0.54784 0.13199 0.36721 -0.28700
N 	N 	0.04784 0.63199 0.13279 -0.28800
N 	N 	0.95216 0.36801 0.86721 -0.28800
N 	N 	0.53449 0.03867 0.75994 -0.30000
N 	N 	0.46551 0.96133 0.24006 -0.30000
N 	N 	0.96551 0.46133 0.25994 -0.30100
N 	N 	0.03449 0.53867 0.74006 -0.30100
N 	N 	0.25111 0.69024 0.07550 -0.29300
N 	N 	0.74889 0.30976 0.92450 -0.29300
N 	N 	0.24889 0.80976 0.57550 -0.29300
N 	N 	0.75111 0.19024 0.42450 -0.29300
N 	N 	0.48714 0.83677 0.16439 -0.29800
N 	N 	0.51286 0.16323 0.83561 -0.29800
N 	N 	0.01286 0.66323 0.66439 -0.29900
N 	N 	0.98714 0.33677 0.33561 -0.29900
N 	N 	0.55330 0.63990 0.11771 -0.29200
N 	N 	0.44670 0.36010 0.88229 -0.29200
N 	N 	0.94670 0.86010 0.61771 -0.29200
N 	N 	0.05330 0.13990 0.38229 -0.29200
