data_crystal

_cell_length_a 14.27490
_cell_length_b 14.27490
_cell_length_c 14.27490
_cell_angle_alpha 107.26400
_cell_angle_beta  107.26400
_cell_angle_gamma 107.26400

_symmetry_space_group_name_	'P 1'
_symmetry_space_group_name_H-M	'P 1'

loop_
_symmetry_equiv_pos_as_xyz
  x,y,z

loop_
_atom_site_label
_atom_site_type_symbol
_atom_site_fract_x
_atom_site_fract_y
_atom_site_fract_z
_atom_site_charge
Zn	Zn	0.98650 0.25983 0.72887 1.17500
Zn	Zn	0.01350 0.74017 0.27113 1.17500
Zn	Zn	0.72887 0.98650 0.25983 1.17500
Zn	Zn	0.27113 0.01350 0.74017 1.17500
Zn	Zn	0.25983 0.72887 0.98650 1.17500
Zn	Zn	0.74017 0.27113 0.01350 1.17500
H 	H 	0.08980 0.49590 0.89830 -0.04700
H 	H 	0.91020 0.50410 0.10170 -0.04700
H 	H 	0.89830 0.08980 0.49590 -0.04700
H 	H 	0.10170 0.91020 0.50410 -0.04700
H 	H 	0.49590 0.89830 0.08980 -0.04700
H 	H 	0.50410 0.10170 0.91020 -0.04700
H 	H 	0.13160 0.30570 0.58830 0.04300
H 	H 	0.86840 0.69430 0.41170 0.04300
H 	H 	0.58830 0.13160 0.30570 0.04300
H 	H 	0.41170 0.86840 0.69430 0.04300
H 	H 	0.30570 0.58830 0.13160 0.04300
H 	H 	0.69430 0.41170 0.86840 0.04300
H 	H 	0.25950 0.39840 0.54200 0.02900
H 	H 	0.74050 0.60160 0.45800 0.02900
H 	H 	0.54200 0.25950 0.39840 0.02900
H 	H 	0.45800 0.74050 0.60160 0.02900
H 	H 	0.39840 0.54200 0.25950 0.02900
H 	H 	0.60160 0.45800 0.74050 0.02900
H 	H 	0.36950 0.58250 0.64450 0.03300
H 	H 	0.63050 0.41750 0.35550 0.03300
H 	H 	0.64450 0.36950 0.58250 0.03300
H 	H 	0.35550 0.63050 0.41750 0.03300
H 	H 	0.58250 0.64450 0.36950 0.03300
H 	H 	0.41750 0.35550 0.63050 0.03300
H 	H 	0.79740 0.35470 0.67790 0.04000
H 	H 	0.20260 0.64530 0.32210 0.04000
H 	H 	0.67790 0.79740 0.35470 0.04000
H 	H 	0.32210 0.20260 0.64530 0.04000
H 	H 	0.35470 0.67790 0.79740 0.04000
H 	H 	0.64530 0.32210 0.20260 0.04000
H 	H 	0.19740 0.21150 0.75230 -0.05500
H 	H 	0.80260 0.78850 0.24770 -0.05500
H 	H 	0.75230 0.19740 0.21150 -0.05500
H 	H 	0.24770 0.80260 0.78850 -0.05500
H 	H 	0.21150 0.75230 0.19740 -0.05500
H 	H 	0.78850 0.24770 0.80260 -0.05500
H 	H 	0.82180 0.02020 0.65530 0.03400
H 	H 	0.17820 0.97980 0.34470 0.03400
H 	H 	0.65530 0.82180 0.02020 0.03400
H 	H 	0.34470 0.17820 0.97980 0.03400
H 	H 	0.02020 0.65530 0.82180 0.03400
H 	H 	0.97980 0.34470 0.17820 0.03400
H 	H 	0.16630 0.32840 0.95570 0.03000
H 	H 	0.83370 0.67160 0.04430 0.03000
H 	H 	0.95570 0.16630 0.32840 0.03000
H 	H 	0.04430 0.83370 0.67160 0.03000
H 	H 	0.32840 0.95570 0.16630 0.03000
H 	H 	0.67160 0.04430 0.83370 0.03000
H 	H 	0.75200 0.84160 0.62050 0.02900
H 	H 	0.24800 0.15840 0.37950 0.02900
H 	H 	0.62050 0.75200 0.84160 0.02900
H 	H 	0.37950 0.24800 0.15840 0.02900
H 	H 	0.84160 0.62050 0.75200 0.02900
H 	H 	0.15840 0.37950 0.24800 0.02900
H 	H 	0.25370 0.37190 0.14040 0.03400
H 	H 	0.74630 0.62810 0.85960 0.03400
H 	H 	0.14040 0.25370 0.37190 0.03400
H 	H 	0.85960 0.74630 0.62810 0.03400
H 	H 	0.37190 0.14040 0.25370 0.03400
H 	H 	0.62810 0.85960 0.74630 0.03400
C 	C 	0.12420 0.49470 0.85220 0.08500
C 	C 	0.87580 0.50530 0.14780 0.08500
C 	C 	0.85220 0.12420 0.49470 0.08500
C 	C 	0.14780 0.87580 0.50530 0.08500
C 	C 	0.49470 0.85220 0.12420 0.08500
C 	C 	0.50530 0.14780 0.87580 0.08500
C 	C 	0.16480 0.43720 0.71880 0.04500
C 	C 	0.83520 0.56280 0.28120 0.04500
C 	C 	0.71880 0.16480 0.43720 0.04500
C 	C 	0.28120 0.83520 0.56280 0.04500
C 	C 	0.43720 0.71880 0.16480 0.04500
C 	C 	0.56280 0.28120 0.83520 0.04500
C 	C 	0.17490 0.37930 0.62920 -0.11100
C 	C 	0.82510 0.62070 0.37080 -0.11100
C 	C 	0.62920 0.17490 0.37930 -0.11100
C 	C 	0.37080 0.82510 0.62070 -0.11100
C 	C 	0.37930 0.62920 0.17490 -0.11100
C 	C 	0.62070 0.37080 0.82510 -0.11100
C 	C 	0.25130 0.43510 0.60260 -0.02200
C 	C 	0.74870 0.56490 0.39740 -0.02200
C 	C 	0.60260 0.25130 0.43510 -0.02200
C 	C 	0.39740 0.74870 0.56490 -0.02200
C 	C 	0.43510 0.60260 0.25130 -0.02200
C 	C 	0.56490 0.39740 0.74870 -0.02200
C 	C 	0.31860 0.54730 0.66520 -0.02600
C 	C 	0.68140 0.45270 0.33480 -0.02600
C 	C 	0.66520 0.31860 0.54730 -0.02600
C 	C 	0.33480 0.68140 0.45270 -0.02600
C 	C 	0.54730 0.66520 0.31860 -0.02600
C 	C 	0.45270 0.33480 0.68140 -0.02600
C 	C 	0.78110 0.23150 0.54860 0.04300
C 	C 	0.21890 0.76850 0.45140 0.04300
C 	C 	0.54860 0.78110 0.23150 0.04300
C 	C 	0.45140 0.21890 0.76850 0.04300
C 	C 	0.23150 0.54860 0.78110 0.04300
C 	C 	0.76850 0.45140 0.21890 0.04300
C 	C 	0.75530 0.30990 0.60460 -0.10600
C 	C 	0.24470 0.69010 0.39540 -0.10600
C 	C 	0.60460 0.75530 0.30990 -0.10600
C 	C 	0.39540 0.24470 0.69010 -0.10600
C 	C 	0.30990 0.60460 0.75530 -0.10600
C 	C 	0.69010 0.39540 0.24470 -0.10600
C 	C 	0.13860 0.14800 0.73270 0.12000
C 	C 	0.86140 0.85200 0.26730 0.12000
C 	C 	0.73270 0.13860 0.14800 0.12000
C 	C 	0.26730 0.86140 0.85200 0.12000
C 	C 	0.14800 0.73270 0.13860 0.12000
C 	C 	0.85200 0.26730 0.86140 0.12000
C 	C 	0.97910 0.03950 0.68960 0.04100
C 	C 	0.02090 0.96050 0.31040 0.04100
C 	C 	0.68960 0.97910 0.03950 0.04100
C 	C 	0.31040 0.02090 0.96050 0.04100
C 	C 	0.03950 0.68960 0.97910 0.04100
C 	C 	0.96050 0.31040 0.02090 0.04100
C 	C 	0.86620 0.98410 0.65990 -0.10600
C 	C 	0.13380 0.01590 0.34010 -0.10600
C 	C 	0.65990 0.86620 0.98410 -0.10600
C 	C 	0.34010 0.13380 0.01590 -0.10600
C 	C 	0.98410 0.65990 0.86620 -0.10600
C 	C 	0.01590 0.34010 0.13380 -0.10600
C 	C 	0.01570 0.30710 0.95720 0.02600
C 	C 	0.98430 0.69290 0.04280 0.02600
C 	C 	0.95720 0.01570 0.30710 0.02600
C 	C 	0.04280 0.98430 0.69290 0.02600
C 	C 	0.30710 0.95720 0.01570 0.02600
C 	C 	0.69290 0.04280 0.98430 0.02600
C 	C 	0.12930 0.33060 0.99950 -0.09800
C 	C 	0.87070 0.66940 0.00050 -0.09800
C 	C 	0.99950 0.12930 0.33060 -0.09800
C 	C 	0.00050 0.87070 0.66940 -0.09800
C 	C 	0.33060 0.99950 0.12930 -0.09800
C 	C 	0.66940 0.00050 0.87070 -0.09800
C 	C 	0.82520 0.87750 0.63860 -0.02100
C 	C 	0.17480 0.12250 0.36140 -0.02100
C 	C 	0.63860 0.82520 0.87750 -0.02100
C 	C 	0.36140 0.17480 0.12250 -0.02100
C 	C 	0.87750 0.63860 0.82520 -0.02100
C 	C 	0.12250 0.36140 0.17480 -0.02100
C 	C 	0.18080 0.35710 0.10960 -0.03400
C 	C 	0.81920 0.64290 0.89040 -0.03400
C 	C 	0.10960 0.18080 0.35710 -0.03400
C 	C 	0.89040 0.81920 0.64290 -0.03400
C 	C 	0.35710 0.10960 0.18080 -0.03400
C 	C 	0.64290 0.89040 0.81920 -0.03400
N 	N 	0.09780 0.40430 0.76800 -0.29500
N 	N 	0.90220 0.59570 0.23200 -0.29500
N 	N 	0.76800 0.09780 0.40430 -0.29500
N 	N 	0.23200 0.90220 0.59570 -0.29500
N 	N 	0.40430 0.76800 0.09780 -0.29500
N 	N 	0.59570 0.23200 0.90220 -0.29500
N 	N 	0.94280 0.27840 0.85120 -0.29600
N 	N 	0.05720 0.72160 0.14880 -0.29600
N 	N 	0.85120 0.94280 0.27840 -0.29600
N 	N 	0.14880 0.05720 0.72160 -0.29600
N 	N 	0.27840 0.85120 0.94280 -0.29600
N 	N 	0.72160 0.14880 0.05720 -0.29600
N 	N 	0.86670 0.20360 0.58420 -0.29400
N 	N 	0.13330 0.79640 0.41580 -0.29400
N 	N 	0.58420 0.86670 0.20360 -0.29400
N 	N 	0.41580 0.13330 0.79640 -0.29400
N 	N 	0.20360 0.58420 0.86670 -0.29400
N 	N 	0.79640 0.41580 0.13330 -0.29400
N 	N 	0.04160 0.14510 0.71500 -0.29600
N 	N 	0.95840 0.85490 0.28500 -0.29600
N 	N 	0.71500 0.04160 0.14510 -0.29600
N 	N 	0.28500 0.95840 0.85490 -0.29600
N 	N 	0.14510 0.71500 0.04160 -0.29600
N 	N 	0.85490 0.28500 0.95840 -0.29600
