data_crystal

_cell_length_a 17.27150
_cell_length_b 17.27150
_cell_length_c 17.27150
_cell_angle_alpha 90.00000
_cell_angle_beta  90.00000
_cell_angle_gamma 90.00000

_symmetry_space_group_name_	'P 1'
_symmetry_space_group_name_H-M	'P 1'

loop_
_symmetry_equiv_pos_as_xyz
  x,y,z

loop_
_atom_site_label
_atom_site_type_symbol
_atom_site_fract_x
_atom_site_fract_y
_atom_site_fract_z
_atom_site_charge
Zn	Zn	-0.00000 0.50000 0.25000 1.15900
Zn	Zn	0.00000 0.50000 0.75000 1.17800
Zn	Zn	0.25000 0.00000 0.50000 1.15600
Zn	Zn	0.75000 0.00000 0.50000 1.16100
Zn	Zn	0.50000 0.25000 -0.00000 1.16900
Zn	Zn	0.50000 0.75000 -0.00000 1.16700
Zn	Zn	0.50000 0.00000 0.25000 1.15800
Zn	Zn	0.50000 0.00000 0.75000 1.17100
Zn	Zn	-0.00000 0.25000 0.50000 1.16300
Zn	Zn	0.00000 0.75000 0.50000 1.16600
Zn	Zn	0.25000 0.50000 -0.00000 1.16700
Zn	Zn	0.75000 0.50000 -0.00000 1.16800
H 	H 	0.93000 0.59000 0.10500 0.32200
H 	H 	0.86270 0.36800 0.22920 0.03200
H 	H 	0.36270 0.86800 0.72920 0.05400
H 	H 	0.07000 0.41000 0.10500 0.20600
H 	H 	0.13730 0.63200 0.22920 0.02100
H 	H 	0.63730 0.13200 0.72920 0.02100
H 	H 	0.13730 0.36800 0.77080 0.03000
H 	H 	0.63730 0.86800 0.27080 0.04400
H 	H 	0.86270 0.63200 0.77080 0.05700
H 	H 	0.43000 0.91000 0.39500 0.06600
H 	H 	0.36270 0.13200 0.27080 0.00900
H 	H 	0.10500 0.93000 0.59000 0.32000
H 	H 	0.22920 0.86270 0.36800 0.03500
H 	H 	0.72920 0.36270 0.86800 0.04800
H 	H 	0.10500 0.07000 0.41000 0.21300
H 	H 	0.22920 0.13730 0.63200 0.01300
H 	H 	0.60500 0.57000 0.91000 0.07000
H 	H 	0.72920 0.63730 0.13200 0.02700
H 	H 	0.77080 0.13730 0.36800 0.02300
H 	H 	0.27080 0.63730 0.86800 0.04500
H 	H 	0.89500 0.93000 0.41000 0.35500
H 	H 	0.77080 0.86270 0.63200 0.04900
H 	H 	0.39500 0.43000 0.91000 0.07400
H 	H 	0.27080 0.36270 0.13200 0.01800
H 	H 	0.59362 0.07348 0.89099 0.26500
H 	H 	0.36800 0.22920 0.86270 0.04200
H 	H 	0.09000 0.60500 0.43000 0.51200
H 	H 	0.86800 0.72920 0.36270 0.04600
H 	H 	0.63200 0.22920 0.13730 0.01800
H 	H 	0.91000 0.60500 0.57000 0.05200
H 	H 	0.13200 0.72920 0.63730 0.02800
H 	H 	0.36800 0.77080 0.13730 0.02100
H 	H 	0.09000 0.39500 0.57000 0.50900
H 	H 	0.86800 0.27080 0.63730 0.04300
H 	H 	0.41000 0.89500 0.93000 0.34700
H 	H 	0.63200 0.77080 0.86270 0.05400
H 	H 	0.13200 0.27080 0.36270 0.01600
H 	H 	0.59000 0.93000 0.10500 0.32900
H 	H 	0.36800 0.86270 0.22920 0.03000
H 	H 	0.86800 0.36270 0.72920 0.05300
H 	H 	0.41000 0.07000 0.10500 0.20500
H 	H 	0.63200 0.13730 0.22920 0.02000
H 	H 	0.13200 0.63730 0.72920 0.02900
H 	H 	0.36800 0.13730 0.77080 0.02800
H 	H 	0.86800 0.63730 0.27080 0.04500
H 	H 	0.63200 0.86270 0.77080 0.05600
H 	H 	0.91000 0.43000 0.39500 0.06700
H 	H 	0.13200 0.36270 0.27080 0.01100
H 	H 	0.93000 0.10500 0.59000 0.32400
H 	H 	0.86270 0.22920 0.36800 0.03600
H 	H 	0.43000 0.60500 0.09000 0.50700
H 	H 	0.36270 0.72920 0.86800 0.04400
H 	H 	0.13730 0.22920 0.63200 0.01600
H 	H 	0.63730 0.72920 0.13200 0.02900
H 	H 	0.13730 0.77080 0.36800 0.02300
H 	H 	0.57000 0.39500 0.09000 0.50500
H 	H 	0.63730 0.27080 0.86800 0.04500
H 	H 	0.86270 0.77080 0.63200 0.05300
H 	H 	0.36270 0.27080 0.13200 0.01900
H 	H 	0.10500 0.59000 0.93000 0.31800
H 	H 	0.22920 0.36800 0.86270 0.03600
H 	H 	0.60500 0.09000 0.43000 0.51800
H 	H 	0.72920 0.86800 0.36270 0.04200
H 	H 	0.22920 0.63200 0.13730 0.02300
H 	H 	0.60500 0.91000 0.57000 0.05200
H 	H 	0.72920 0.13200 0.63730 0.02600
H 	H 	0.77080 0.36800 0.13730 0.02800
H 	H 	0.39500 0.09000 0.57000 0.51300
H 	H 	0.27080 0.86800 0.63730 0.04400
H 	H 	0.89500 0.41000 0.93000 0.34700
H 	H 	0.77080 0.63200 0.86270 0.05100
H 	H 	0.27080 0.13200 0.36270 0.01000
C 	C 	0.86030 0.40630 0.18980 -0.02400
C 	C 	0.36030 0.90630 0.68980 -0.03400
C 	C 	0.13970 0.59370 0.18980 -0.03200
C 	C 	0.63970 0.09370 0.68980 -0.01500
C 	C 	0.13970 0.40630 0.81020 -0.03400
C 	C 	0.63970 0.90630 0.31020 -0.04800
C 	C 	0.86030 0.59370 0.81020 -0.01100
C 	C 	0.36030 0.09370 0.31020 -0.01600
C 	C 	0.18980 0.86030 0.40630 -0.01600
C 	C 	0.68980 0.36030 0.90630 -0.04900
C 	C 	0.18980 0.13970 0.59370 -0.03800
C 	C 	0.68980 0.63970 0.09370 -0.00400
C 	C 	0.81020 0.13970 0.40630 -0.05200
C 	C 	0.31020 0.63970 0.90630 -0.04800
C 	C 	0.81020 0.86030 0.59370 -0.01000
C 	C 	0.31020 0.36030 0.09370 -0.01000
C 	C 	0.40630 0.18980 0.86030 -0.01600
C 	C 	0.90630 0.68980 0.36030 -0.03000
C 	C 	0.59370 0.18980 0.13970 -0.04000
C 	C 	0.09370 0.68980 0.63970 -0.01400
C 	C 	0.40630 0.81020 0.13970 -0.04900
C 	C 	0.90630 0.31020 0.63970 -0.03300
C 	C 	0.59370 0.81020 0.86030 -0.00500
C 	C 	0.09370 0.31020 0.36030 -0.02200
C 	C 	0.40630 0.86030 0.18980 -0.02200
C 	C 	0.90630 0.36030 0.68980 -0.03400
C 	C 	0.59370 0.13970 0.18980 -0.03000
C 	C 	0.09370 0.63970 0.68980 -0.00800
C 	C 	0.40630 0.13970 0.81020 -0.02700
C 	C 	0.90630 0.63970 0.31020 -0.05000
C 	C 	0.59370 0.86030 0.81020 -0.02000
C 	C 	0.09370 0.36030 0.31020 -0.01900
C 	C 	0.86030 0.18980 0.40630 -0.00600
C 	C 	0.36030 0.68980 0.90630 -0.03000
C 	C 	0.13970 0.18980 0.59370 -0.04500
C 	C 	0.63970 0.68980 0.09370 -0.01900
C 	C 	0.13970 0.81020 0.40630 -0.04400
C 	C 	0.63970 0.31020 0.90630 -0.02200
C 	C 	0.86030 0.81020 0.59370 -0.01800
C 	C 	0.36030 0.31020 0.09370 -0.02400
C 	C 	0.18980 0.40630 0.86030 -0.01600
C 	C 	0.68980 0.90630 0.36030 -0.03700
C 	C 	0.18980 0.59370 0.13970 -0.03900
C 	C 	0.68980 0.09370 0.63970 -0.01200
C 	C 	0.81020 0.40630 0.13970 -0.04000
C 	C 	0.31020 0.90630 0.63970 -0.03300
C 	C 	0.81020 0.59370 0.86030 -0.01200
C 	C 	0.31020 0.09370 0.36030 -0.03100
C 	C 	0.87470 0.48670 0.12530 0.30000
C 	C 	0.89740 0.56740 0.10260 -0.45300
C 	C 	0.37470 0.98670 0.62530 0.53200
C 	C 	0.39740 0.06740 0.60260 -0.88100
C 	C 	0.12530 0.51330 0.12530 0.23000
C 	C 	0.10260 0.43260 0.10260 -0.33700
C 	C 	0.62530 0.01330 0.62530 0.05800
C 	C 	0.60260 0.93260 0.60260 0.06100
C 	C 	0.12530 0.48670 0.87470 0.31000
C 	C 	0.10260 0.56740 0.89740 -0.44300
C 	C 	0.62530 0.98670 0.37470 0.52500
C 	C 	0.60260 0.06740 0.39740 -0.89200
C 	C 	0.87470 0.51330 0.87470 0.35000
C 	C 	0.89740 0.43260 0.89740 -0.47000
C 	C 	0.37470 0.01330 0.37470 0.06400
C 	C 	0.39740 0.93260 0.39740 0.03500
C 	C 	0.12530 0.87470 0.48670 0.30500
C 	C 	0.10260 0.89740 0.56740 -0.44900
C 	C 	0.62530 0.37470 0.98670 0.51700
C 	C 	0.60260 0.39740 0.06740 -0.86300
C 	C 	0.12530 0.12530 0.51330 0.23300
C 	C 	0.10260 0.10260 0.43260 -0.34900
C 	C 	0.62530 0.62530 0.01330 0.07200
C 	C 	0.60260 0.60260 0.93260 0.03300
C 	C 	0.87470 0.12530 0.48670 0.30700
C 	C 	0.89740 0.10260 0.56740 -0.45300
C 	C 	0.37470 0.62530 0.98670 0.51900
C 	C 	0.39740 0.60260 0.06740 -0.86800
C 	C 	0.87470 0.87470 0.51330 0.35300
C 	C 	0.89740 0.89740 0.43260 -0.48000
C 	C 	0.37470 0.37470 0.01330 0.07200
C 	C 	0.39740 0.39740 0.93260 0.02300
C 	C 	0.48670 0.12530 0.87470 0.29600
C 	C 	0.56740 0.10260 0.89740 -0.40000
C 	C 	0.98670 0.62530 0.37470 0.52000
C 	C 	0.06740 0.60260 0.39740 -0.87900
C 	C 	0.51330 0.12530 0.12530 0.23600
C 	C 	0.43260 0.10260 0.10260 -0.33600
C 	C 	0.01330 0.62530 0.62530 0.06000
C 	C 	0.93260 0.60260 0.60260 0.05900
C 	C 	0.48670 0.87470 0.12530 0.30400
C 	C 	0.56740 0.89740 0.10260 -0.46300
C 	C 	0.98670 0.37470 0.62530 0.52700
C 	C 	0.06740 0.39740 0.60260 -0.87100
C 	C 	0.51330 0.87470 0.87470 0.34400
C 	C 	0.43260 0.89740 0.89740 -0.47200
C 	C 	0.01330 0.37470 0.37470 0.06600
C 	C 	0.93260 0.39740 0.39740 0.03300
N 	N 	0.91430 0.46770 0.18450 -0.30500
N 	N 	0.41430 0.96770 0.68450 -0.29400
N 	N 	0.08570 0.53230 0.18450 -0.33700
N 	N 	0.58570 0.03230 0.68450 -0.29800
N 	N 	0.08570 0.46770 0.81550 -0.31700
N 	N 	0.58570 0.96770 0.31550 -0.30900
N 	N 	0.91430 0.53230 0.81550 -0.27300
N 	N 	0.41430 0.03230 0.31550 -0.31300
N 	N 	0.18450 0.91430 0.46770 -0.30100
N 	N 	0.68450 0.41430 0.96770 -0.30700
N 	N 	0.18450 0.08570 0.53230 -0.34600
N 	N 	0.68450 0.58570 0.03230 -0.30200
N 	N 	0.81550 0.08570 0.46770 -0.33300
N 	N 	0.31550 0.58570 0.96770 -0.30900
N 	N 	0.81550 0.91430 0.53230 -0.29200
N 	N 	0.31550 0.41430 0.03230 -0.30500
N 	N 	0.46770 0.18450 0.91430 -0.27400
N 	N 	0.96770 0.68450 0.41430 -0.32200
N 	N 	0.53230 0.18450 0.08570 -0.31900
N 	N 	0.03230 0.68450 0.58570 -0.31300
N 	N 	0.46770 0.81550 0.08570 -0.33300
N 	N 	0.96770 0.31550 0.58570 -0.31800
N 	N 	0.53230 0.81550 0.91430 -0.28800
N 	N 	0.03230 0.31550 0.41430 -0.30900
N 	N 	0.46770 0.91430 0.18450 -0.30600
N 	N 	0.96770 0.41430 0.68450 -0.29400
N 	N 	0.53230 0.08570 0.18450 -0.33800
N 	N 	0.03230 0.58570 0.68450 -0.29200
N 	N 	0.46770 0.08570 0.81550 -0.32900
N 	N 	0.96770 0.58570 0.31550 -0.30900
N 	N 	0.53230 0.91430 0.81550 -0.28200
N 	N 	0.03230 0.41430 0.31550 -0.31100
N 	N 	0.91430 0.18450 0.46770 -0.29000
N 	N 	0.41430 0.68450 0.96770 -0.31900
N 	N 	0.08570 0.18450 0.53230 -0.33100
N 	N 	0.58570 0.68450 0.03230 -0.30500
N 	N 	0.08570 0.81550 0.46770 -0.32300
N 	N 	0.58570 0.31550 0.96770 -0.31500
N 	N 	0.91430 0.81550 0.53230 -0.27900
N 	N 	0.41430 0.31550 0.03230 -0.30700
N 	N 	0.18450 0.46770 0.91430 -0.29400
N 	N 	0.68450 0.96770 0.41430 -0.32700
N 	N 	0.18450 0.53230 0.08570 -0.32200
N 	N 	0.68450 0.03230 0.58570 -0.31400
N 	N 	0.81550 0.46770 0.08570 -0.32600
N 	N 	0.31550 0.96770 0.58570 -0.31900
N 	N 	0.81550 0.53230 0.91430 -0.29200
N 	N 	0.31550 0.03230 0.41430 -0.31500
O 	O 	0.88560 0.61290 0.05140 -0.14800
O 	O 	0.11440 0.38710 0.05140 -0.22500
O 	O 	0.38560 0.88710 0.44860 -0.20900
O 	O 	0.05140 0.88560 0.61290 -0.14800
O 	O 	0.05140 0.11440 0.38710 -0.22900
O 	O 	0.55140 0.61440 0.88710 -0.20800
O 	O 	0.94860 0.88560 0.38710 -0.06500
O 	O 	0.44860 0.38560 0.88710 -0.20800
O 	O 	0.11290 0.55140 0.38560 -0.07200
O 	O 	0.88710 0.55140 0.61440 -0.20800
O 	O 	0.11290 0.44860 0.61440 -0.07100
O 	O 	0.38710 0.94860 0.88560 -0.06400
O 	O 	0.61290 0.88560 0.05140 -0.14900
O 	O 	0.38710 0.11440 0.05140 -0.22400
O 	O 	0.61290 0.11440 0.94860 -0.11500
O 	O 	0.88710 0.38560 0.44860 -0.20800
O 	O 	0.88560 0.05140 0.61290 -0.15200
O 	O 	0.38560 0.55140 0.11290 -0.07300
O 	O 	0.61440 0.44860 0.11290 -0.07400
O 	O 	0.05140 0.61290 0.88560 -0.15000
O 	O 	0.55140 0.11290 0.38560 -0.07100
O 	O 	0.55140 0.88710 0.61440 -0.20700
O 	O 	0.44860 0.11290 0.61440 -0.07000
O 	O 	0.94860 0.38710 0.88560 -0.06300
