data_crystal

_cell_length_a 16.74000
_cell_length_b 18.97010
_cell_length_c 18.97010
_cell_angle_alpha 90.00000
_cell_angle_beta  90.00000
_cell_angle_gamma 90.00000

_symmetry_space_group_name_	'P 1'
_symmetry_space_group_name_H-M	'P 1'

loop_
_symmetry_equiv_pos_as_xyz
  x,y,z

loop_
_atom_site_label
_atom_site_type_symbol
_atom_site_fract_x
_atom_site_fract_y
_atom_site_fract_z
_atom_site_charge
Zn	Zn	0.17924 0.60549 0.17336 1.17000
Zn	Zn	0.82076 0.39451 0.82664 1.17000
Zn	Zn	0.17924 0.39451 0.82664 1.17000
Zn	Zn	0.82076 0.60549 0.17336 1.17000
Zn	Zn	0.67924 0.32664 0.10549 1.17000
Zn	Zn	0.32076 0.67336 0.89451 1.17000
Zn	Zn	0.67924 0.67336 0.89451 1.17000
Zn	Zn	0.32076 0.32664 0.10549 1.17000
Zn	Zn	0.32076 0.89451 0.67336 1.17000
Zn	Zn	0.67924 0.10549 0.32664 1.17000
Zn	Zn	0.32076 0.10549 0.32664 1.17000
Zn	Zn	0.67924 0.89451 0.67336 1.17000
Zn	Zn	0.82076 0.17336 0.60549 1.17000
Zn	Zn	0.17924 0.82664 0.39451 1.17000
Zn	Zn	0.82076 0.82664 0.39451 1.17000
Zn	Zn	0.17924 0.17336 0.60549 1.17000
H 	H 	0.13050 0.73320 0.26680 -0.06400
H 	H 	0.86950 0.26680 0.73320 -0.06400
H 	H 	0.13050 0.26680 0.73320 -0.06400
H 	H 	0.86950 0.73320 0.26680 -0.06400
H 	H 	0.63050 0.23320 0.23320 -0.06400
H 	H 	0.36950 0.76680 0.76680 -0.06400
H 	H 	0.63050 0.76680 0.76680 -0.06400
H 	H 	0.36950 0.23320 0.23320 -0.06400
H 	H 	0.30180 0.60270 0.30580 -0.00400
H 	H 	0.69820 0.39730 0.69420 -0.00400
H 	H 	0.30180 0.39730 0.69420 -0.00400
H 	H 	0.69820 0.60270 0.30580 -0.00400
H 	H 	0.80180 0.19420 0.10270 -0.00400
H 	H 	0.19820 0.80580 0.89730 -0.00500
H 	H 	0.80180 0.80580 0.89730 -0.00400
H 	H 	0.19820 0.19420 0.10270 -0.00500
H 	H 	0.19820 0.89730 0.80580 -0.00500
H 	H 	0.80180 0.10270 0.19420 -0.00400
H 	H 	0.19820 0.10270 0.19420 -0.00500
H 	H 	0.80180 0.89730 0.80580 -0.00400
H 	H 	0.69820 0.30580 0.60270 -0.00400
H 	H 	0.30180 0.69420 0.39730 -0.00400
H 	H 	0.69820 0.69420 0.39730 -0.00400
H 	H 	0.30180 0.30580 0.60270 -0.00400
H 	H 	0.21840 0.60470 0.01060 -0.07400
H 	H 	0.78160 0.39530 0.98940 -0.07300
H 	H 	0.21840 0.39530 0.98940 -0.07400
H 	H 	0.78160 0.60470 0.01060 -0.07300
H 	H 	0.71840 0.48940 0.10470 -0.07300
H 	H 	0.28160 0.51060 0.89530 -0.07300
H 	H 	0.71840 0.51060 0.89530 -0.07300
H 	H 	0.28160 0.48940 0.10470 -0.07300
H 	H 	0.28160 0.89530 0.51060 -0.07300
H 	H 	0.71840 0.10470 0.48940 -0.07300
H 	H 	0.28160 0.10470 0.48940 -0.07300
H 	H 	0.71840 0.89530 0.51060 -0.07300
H 	H 	0.78160 0.01060 0.60470 -0.07300
H 	H 	0.21840 0.98940 0.39530 -0.07400
H 	H 	0.78160 0.98940 0.39530 -0.07300
H 	H 	0.21840 0.01060 0.60470 -0.07400
H 	H 	0.32210 0.71800 0.15250 0.00000
H 	H 	0.67790 0.28200 0.84750 0.00000
H 	H 	0.32210 0.28200 0.84750 0.00000
H 	H 	0.67790 0.71800 0.15250 0.00000
H 	H 	0.82210 0.34750 0.21800 0.00100
H 	H 	0.17790 0.65250 0.78200 0.00000
H 	H 	0.82210 0.65250 0.78200 0.00100
H 	H 	0.17790 0.34750 0.21800 0.00000
H 	H 	0.17790 0.78200 0.65250 0.00000
H 	H 	0.82210 0.21800 0.34750 0.00100
H 	H 	0.17790 0.21800 0.34750 0.00000
H 	H 	0.82210 0.78200 0.65250 0.00100
H 	H 	0.67790 0.15250 0.71800 0.00000
H 	H 	0.32210 0.84750 0.28200 0.00000
H 	H 	0.67790 0.84750 0.28200 0.00000
H 	H 	0.32210 0.15250 0.71800 0.00000
H 	H 	0.07480 0.71250 0.08450 -0.00400
H 	H 	0.92520 0.28750 0.91550 -0.00700
H 	H 	0.07480 0.28750 0.91550 -0.00400
H 	H 	0.92520 0.71250 0.08450 -0.00700
H 	H 	0.57480 0.41550 0.21250 -0.00500
H 	H 	0.42520 0.58450 0.78750 -0.00500
H 	H 	0.57480 0.58450 0.78750 -0.00500
H 	H 	0.42520 0.41550 0.21250 -0.00500
H 	H 	0.42520 0.78750 0.58450 -0.00500
H 	H 	0.57480 0.21250 0.41550 -0.00500
H 	H 	0.42520 0.21250 0.41550 -0.00500
H 	H 	0.57480 0.78750 0.58450 -0.00500
H 	H 	0.92520 0.08450 0.71250 -0.00700
H 	H 	0.07480 0.91550 0.28750 -0.00400
H 	H 	0.92520 0.91550 0.28750 -0.00700
H 	H 	0.07480 0.08450 0.71250 -0.00400
H 	H 	0.00000 0.55670 0.19890 -0.06400
H 	H 	-0.00000 0.44330 0.80110 -0.06400
H 	H 	0.50000 0.30110 0.05670 -0.06400
H 	H 	0.50000 0.69890 0.94330 -0.06400
H 	H 	0.50000 0.94330 0.69890 -0.06400
H 	H 	0.50000 0.05670 0.30110 -0.06400
H 	H 	0.00000 0.19890 0.55670 -0.06400
H 	H 	0.00000 0.80110 0.44330 -0.06400
H 	H 	0.12270 0.46040 0.25080 -0.00700
H 	H 	0.87730 0.53960 0.74920 -0.00600
H 	H 	0.12270 0.53960 0.74920 -0.00700
H 	H 	0.87730 0.46040 0.25080 -0.00600
H 	H 	0.62270 0.24920 0.96040 -0.00700
H 	H 	0.37730 0.75080 0.03960 -0.00700
H 	H 	0.62270 0.75080 0.03960 -0.00700
H 	H 	0.37730 0.24920 0.96040 -0.00700
H 	H 	0.37730 0.03960 0.75080 -0.00700
H 	H 	0.62270 0.96040 0.24920 -0.00700
H 	H 	0.37730 0.96040 0.24920 -0.00700
H 	H 	0.62270 0.03960 0.75080 -0.00700
H 	H 	0.87730 0.25080 0.46040 -0.00600
H 	H 	0.12270 0.74920 0.53960 -0.00700
H 	H 	0.87730 0.74920 0.53960 -0.00600
H 	H 	0.12270 0.25080 0.46040 -0.00700
C 	C 	0.17270 0.71070 0.28930 0.10200
C 	C 	0.82730 0.28930 0.71070 0.10200
C 	C 	0.17270 0.28930 0.71070 0.10200
C 	C 	0.82730 0.71070 0.28930 0.10200
C 	C 	0.67270 0.21070 0.21070 0.10200
C 	C 	0.32730 0.78930 0.78930 0.10200
C 	C 	0.67270 0.78930 0.78930 0.10200
C 	C 	0.32730 0.21070 0.21070 0.10200
C 	C 	0.26560 0.63980 0.30920 -0.00800
C 	C 	0.73440 0.36020 0.69080 -0.00800
C 	C 	0.26560 0.36020 0.69080 -0.00800
C 	C 	0.73440 0.63980 0.30920 -0.00800
C 	C 	0.76560 0.19080 0.13980 -0.00800
C 	C 	0.23440 0.80920 0.86020 -0.00800
C 	C 	0.76560 0.80920 0.86020 -0.00800
C 	C 	0.23440 0.19080 0.13980 -0.00800
C 	C 	0.23440 0.86020 0.80920 -0.00800
C 	C 	0.76560 0.13980 0.19080 -0.00800
C 	C 	0.23440 0.13980 0.19080 -0.00800
C 	C 	0.76560 0.86020 0.80920 -0.00800
C 	C 	0.73440 0.30920 0.63980 -0.00800
C 	C 	0.26560 0.69080 0.36020 -0.00800
C 	C 	0.73440 0.69080 0.36020 -0.00800
C 	C 	0.26560 0.30920 0.63980 -0.00800
C 	C 	0.25050 0.63820 0.03260 0.10900
C 	C 	0.74950 0.36180 0.96740 0.10900
C 	C 	0.25050 0.36180 0.96740 0.10900
C 	C 	0.74950 0.63820 0.03260 0.10900
C 	C 	0.75050 0.46740 0.13820 0.11000
C 	C 	0.24950 0.53260 0.86180 0.10900
C 	C 	0.75050 0.53260 0.86180 0.11000
C 	C 	0.24950 0.46740 0.13820 0.10900
C 	C 	0.24950 0.86180 0.53260 0.10900
C 	C 	0.75050 0.13820 0.46740 0.11000
C 	C 	0.24950 0.13820 0.46740 0.10900
C 	C 	0.75050 0.86180 0.53260 0.11000
C 	C 	0.74950 0.03260 0.63820 0.10900
C 	C 	0.25050 0.96740 0.36180 0.10900
C 	C 	0.74950 0.96740 0.36180 0.10900
C 	C 	0.25050 0.03260 0.63820 0.10900
C 	C 	0.30660 0.69920 0.10930 -0.01400
C 	C 	0.69340 0.30080 0.89070 -0.01400
C 	C 	0.30660 0.30080 0.89070 -0.01400
C 	C 	0.69340 0.69920 0.10930 -0.01400
C 	C 	0.80660 0.39070 0.19920 -0.01400
C 	C 	0.19340 0.60930 0.80080 -0.01400
C 	C 	0.80660 0.60930 0.80080 -0.01400
C 	C 	0.19340 0.39070 0.19920 -0.01400
C 	C 	0.19340 0.80080 0.60930 -0.01400
C 	C 	0.80660 0.19920 0.39070 -0.01400
C 	C 	0.19340 0.19920 0.39070 -0.01400
C 	C 	0.80660 0.80080 0.60930 -0.01400
C 	C 	0.69340 0.10930 0.69920 -0.01400
C 	C 	0.30660 0.89070 0.30080 -0.01400
C 	C 	0.69340 0.89070 0.30080 -0.01400
C 	C 	0.30660 0.10930 0.69920 -0.01400
C 	C 	0.04220 0.68120 0.10880 -0.01500
C 	C 	0.95780 0.31880 0.89120 -0.00400
C 	C 	0.04220 0.31880 0.89120 -0.01500
C 	C 	0.95780 0.68120 0.10880 -0.00400
C 	C 	0.54220 0.39120 0.18120 -0.01000
C 	C 	0.45780 0.60880 0.81880 -0.01000
C 	C 	0.54220 0.60880 0.81880 -0.01000
C 	C 	0.45780 0.39120 0.18120 -0.01000
C 	C 	0.45780 0.81880 0.60880 -0.01000
C 	C 	0.54220 0.18120 0.39120 -0.01000
C 	C 	0.45780 0.18120 0.39120 -0.01000
C 	C 	0.54220 0.81880 0.60880 -0.01000
C 	C 	0.95780 0.10880 0.68120 -0.00400
C 	C 	0.04220 0.89120 0.31880 -0.01500
C 	C 	0.95780 0.89120 0.31880 -0.00400
C 	C 	0.04220 0.10880 0.68120 -0.01500
C 	C 	0.00000 0.59710 0.17110 0.09300
C 	C 	-0.00000 0.40290 0.82890 0.09300
C 	C 	0.50000 0.32890 0.09710 0.09700
C 	C 	0.50000 0.67110 0.90290 0.09700
C 	C 	0.50000 0.90290 0.67110 0.09700
C 	C 	0.50000 0.09710 0.32890 0.09700
C 	C 	0.00000 0.17110 0.59710 0.09300
C 	C 	-0.00000 0.82890 0.40290 0.09300
C 	C 	0.16230 0.45270 0.21730 -0.00500
C 	C 	0.83770 0.54730 0.78270 -0.00400
C 	C 	0.16230 0.54730 0.78270 -0.00500
C 	C 	0.83770 0.45270 0.21730 -0.00400
C 	C 	0.66230 0.28270 0.95270 -0.00400
C 	C 	0.33770 0.71730 0.04730 -0.00500
C 	C 	0.66230 0.71730 0.04730 -0.00400
C 	C 	0.33770 0.28270 0.95270 -0.00500
C 	C 	0.33770 0.04730 0.71730 -0.00500
C 	C 	0.66230 0.95270 0.28270 -0.00400
C 	C 	0.33770 0.95270 0.28270 -0.00500
C 	C 	0.66230 0.04730 0.71730 -0.00400
C 	C 	0.83770 0.21730 0.45270 -0.00400
C 	C 	0.16230 0.78270 0.54730 -0.00500
C 	C 	0.83770 0.78270 0.54730 -0.00400
C 	C 	0.16230 0.21730 0.45270 -0.00500
N 	N 	0.20440 0.65220 0.26460 -0.29500
N 	N 	0.79560 0.34780 0.73540 -0.29500
N 	N 	0.20440 0.34780 0.73540 -0.29500
N 	N 	0.79560 0.65220 0.26460 -0.29500
N 	N 	0.70440 0.23540 0.15220 -0.29500
N 	N 	0.29560 0.76460 0.84780 -0.29500
N 	N 	0.70440 0.76460 0.84780 -0.29500
N 	N 	0.29560 0.23540 0.15220 -0.29500
N 	N 	0.29560 0.84780 0.76460 -0.29500
N 	N 	0.70440 0.15220 0.23540 -0.29500
N 	N 	0.29560 0.15220 0.23540 -0.29500
N 	N 	0.70440 0.84780 0.76460 -0.29500
N 	N 	0.79560 0.26460 0.65220 -0.29500
N 	N 	0.20440 0.73540 0.34780 -0.29500
N 	N 	0.79560 0.73540 0.34780 -0.29500
N 	N 	0.20440 0.26460 0.65220 -0.29500
N 	N 	0.24880 0.64920 0.10060 -0.29700
N 	N 	0.75120 0.35080 0.89940 -0.29700
N 	N 	0.24880 0.35080 0.89940 -0.29700
N 	N 	0.75120 0.64920 0.10060 -0.29700
N 	N 	0.74880 0.39940 0.14920 -0.29700
N 	N 	0.25120 0.60060 0.85080 -0.29700
N 	N 	0.74880 0.60060 0.85080 -0.29700
N 	N 	0.25120 0.39940 0.14920 -0.29700
N 	N 	0.25120 0.85080 0.60060 -0.29700
N 	N 	0.74880 0.14920 0.39940 -0.29700
N 	N 	0.25120 0.14920 0.39940 -0.29700
N 	N 	0.74880 0.85080 0.60060 -0.29700
N 	N 	0.75120 0.10060 0.64920 -0.29700
N 	N 	0.24880 0.89940 0.35080 -0.29700
N 	N 	0.75120 0.89940 0.35080 -0.29700
N 	N 	0.24880 0.10060 0.64920 -0.29700
N 	N 	0.06710 0.62800 0.14990 -0.29600
N 	N 	0.93290 0.37200 0.85010 -0.29600
N 	N 	0.06710 0.37200 0.85010 -0.29600
N 	N 	0.93290 0.62800 0.14990 -0.29600
N 	N 	0.56710 0.35010 0.12800 -0.29700
N 	N 	0.43290 0.64990 0.87200 -0.29700
N 	N 	0.56710 0.64990 0.87200 -0.29700
N 	N 	0.43290 0.35010 0.12800 -0.29700
N 	N 	0.43290 0.87200 0.64990 -0.29700
N 	N 	0.56710 0.12800 0.35010 -0.29700
N 	N 	0.43290 0.12800 0.35010 -0.29700
N 	N 	0.56710 0.87200 0.64990 -0.29700
N 	N 	0.93290 0.14990 0.62800 -0.29600
N 	N 	0.06710 0.85010 0.37200 -0.29600
N 	N 	0.93290 0.85010 0.37200 -0.29600
N 	N 	0.06710 0.14990 0.62800 -0.29600
N 	N 	0.19920 0.50210 0.17790 -0.30000
N 	N 	0.80080 0.49790 0.82210 -0.29900
N 	N 	0.19920 0.49790 0.82210 -0.30000
N 	N 	0.80080 0.50210 0.17790 -0.29900
N 	N 	0.69920 0.32210 0.00210 -0.30000
N 	N 	0.30080 0.67790 0.99790 -0.30000
N 	N 	0.69920 0.67790 0.99790 -0.30000
N 	N 	0.30080 0.32210 0.00210 -0.30000
N 	N 	0.30080 0.99790 0.67790 -0.30000
N 	N 	0.69920 0.00210 0.32210 -0.30000
N 	N 	0.30080 0.00210 0.32210 -0.30000
N 	N 	0.69920 0.99790 0.67790 -0.30000
N 	N 	0.80080 0.17790 0.50210 -0.29900
N 	N 	0.19920 0.82210 0.49790 -0.30000
N 	N 	0.80080 0.82210 0.49790 -0.29900
N 	N 	0.19920 0.17790 0.50210 -0.30000
