data_crystal

_cell_length_a 10.92880
_cell_length_b 10.92880
_cell_length_c 9.60840
_cell_angle_alpha 90.00000
_cell_angle_beta  90.00000
_cell_angle_gamma 90.00000

_symmetry_space_group_name_	'P 1'
_symmetry_space_group_name_H-M	'P 1'

loop_
_symmetry_equiv_pos_as_xyz
  x,y,z

loop_
_atom_site_label
_atom_site_type_symbol
_atom_site_fract_x
_atom_site_fract_y
_atom_site_fract_z
_atom_site_charge
Zn	Zn	0.48774 0.51207 0.14773 1.20400
Zn	Zn	0.48774 0.51208 0.85226 1.20400
H 	H 	0.52564 0.32803 0.37672 0.03500
H 	H 	0.62924 0.64450 0.37538 0.03500
H 	H 	0.30409 0.57561 0.37573 0.03700
H 	H 	0.41414 0.69366 0.62442 0.03600
H 	H 	0.36882 0.36388 0.62404 0.03500
H 	H 	0.67643 0.49043 0.62317 0.03700
H 	H 	0.62872 0.64505 0.62420 0.03500
H 	H 	0.52625 0.32819 0.62297 0.03500
H 	H 	0.30389 0.57497 0.62387 0.03700
H 	H 	0.41481 0.69388 0.37593 0.03600
H 	H 	0.67632 0.48972 0.37723 0.03700
H 	H 	0.36833 0.36425 0.37630 0.03500
H 	H 	0.10268 0.51361 0.77660 0.04400
H 	H 	0.87216 0.49898 0.77662 0.04300
H 	H 	0.48300 0.12757 0.77655 0.04300
H 	H 	0.49783 0.89702 0.77655 0.04400
H 	H 	0.87216 0.49901 0.22345 0.04300
H 	H 	0.10268 0.51365 0.22347 0.04400
H 	H 	0.48290 0.12756 0.22341 0.04300
H 	H 	0.49775 0.89699 0.22339 0.04400
C 	C 	0.24986 0.52289 0.00003 0.35500
C 	C 	0.11415 0.51507 0.00004 -0.08000
C 	C 	0.72467 0.49490 0.00005 0.35700
C 	C 	0.86065 0.49807 0.00004 -0.08100
C 	C 	0.47507 0.27484 0.99997 0.35800
C 	C 	0.48161 0.13903 0.99998 -0.08100
C 	C 	0.50334 0.74961 0.99995 0.35400
C 	C 	0.49881 0.88552 0.99997 -0.07900
C 	C 	0.05077 0.51052 0.87352 -0.00500
C 	C 	0.92408 0.50172 0.87355 -0.00400
C 	C 	0.48596 0.07564 0.87346 -0.00400
C 	C 	0.49487 0.94896 0.87346 -0.00600
C 	C 	0.92408 0.50174 0.12653 -0.00400
C 	C 	0.05077 0.51054 0.12655 -0.00500
C 	C 	0.48591 0.07564 0.12649 -0.00400
C 	C 	0.49483 0.94894 0.12648 -0.00600
C 	C 	0.45739 0.39131 0.41987 -0.03900
C 	C 	0.60872 0.55394 0.41976 -0.03900
C 	C 	0.39267 0.60351 0.41965 -0.03900
C 	C 	0.39247 0.60331 0.58033 -0.03900
C 	C 	0.45764 0.39126 0.58014 -0.04000
C 	C 	0.60863 0.55424 0.58020 -0.03900
N 	N 	0.48635 0.51599 0.36686 -0.19300
N 	N 	0.48634 0.51601 0.63313 -0.19300
O 	O 	0.67246 0.49477 0.88179 -0.45500
O 	O 	0.30198 0.52543 0.88171 -0.45300
O 	O 	0.47326 0.32697 0.88172 -0.45400
O 	O 	0.50423 0.69745 0.88156 -0.45300
O 	O 	0.30198 0.52551 0.11835 -0.45300
O 	O 	0.67247 0.49469 0.11831 -0.45500
O 	O 	0.50432 0.69742 0.11832 -0.45300
O 	O 	0.47317 0.32699 0.11821 -0.45400
