data_crystal

_cell_length_a 9.86230
_cell_length_b 13.19490
_cell_length_c 17.89530
_cell_angle_alpha 84.08940
_cell_angle_beta  74.00500
_cell_angle_gamma 68.05520

_symmetry_space_group_name_	'P 1'
_symmetry_space_group_name_H-M	'P 1'

loop_
_symmetry_equiv_pos_as_xyz
  x,y,z

loop_
_atom_site_label
_atom_site_type_symbol
_atom_site_fract_x
_atom_site_fract_y
_atom_site_fract_z
_atom_site_charge
Zn	Zn	0.52513 0.81928 0.16798 1.16800
Zn	Zn	0.86673 0.10220 0.19454 1.18900
Zn	Zn	0.51239 0.18072 0.83202 1.16700
Zn	Zn	0.16348 0.89779 0.80545 1.20600
Zn	Zn	0.94311 0.31928 0.33202 1.16100
Zn	Zn	0.31127 0.60221 0.30545 1.19800
Zn	Zn	0.59441 0.68072 0.66798 1.16900
Zn	Zn	0.21892 0.39780 0.69455 1.19900
Zn	Zn	0.02027 0.00000 -0.00000 1.17600
Zn	Zn	0.27027 0.50000 0.50000 1.19500
H 	H 	0.72370 0.45720 0.11840 0.00200
H 	H 	0.87840 0.61440 0.93100 -0.00500
H 	H 	0.02270 0.28660 0.93180 0.01800
H 	H 	0.35590 0.87360 0.03400 -0.03200
H 	H 	0.18890 0.98480 0.24520 -0.04100
H 	H 	0.80300 0.85260 0.03700 -0.02800
H 	H 	0.60480 0.99640 0.23680 -0.05300
H 	H 	0.29930 0.54280 0.88160 0.06200
H 	H 	0.42380 0.38560 0.06900 0.06100
H 	H 	0.24110 0.71340 0.06820 0.05600
H 	H 	0.26350 0.12640 0.96600 -0.01700
H 	H 	0.41890 0.01520 0.75480 -0.03600
H 	H 	0.69260 0.14740 0.96300 -0.01100
H 	H 	0.83800 0.00360 0.76320 -0.05400
H 	H 	0.09210 0.95720 0.38160 0.03100
H 	H 	0.05940 0.11440 0.56900 0.04800
H 	H 	0.20450 0.78660 0.56820 0.02300
H 	H 	0.63990 0.37360 0.46600 -0.02800
H 	H 	0.68410 0.48480 0.25480 -0.03900
H 	H 	0.09000 0.35260 0.46300 -0.01500
H 	H 	0.09160 0.49640 0.26320 -0.04800
H 	H 	0.43090 0.04280 0.61840 0.04000
H 	H 	0.74280 0.88560 0.43100 0.02000
H 	H 	0.55930 0.21340 0.43180 0.01900
H 	H 	0.47950 0.62640 0.53400 -0.02700
H 	H 	0.42370 0.51520 0.74520 -0.03900
H 	H 	0.90560 0.64740 0.53700 -0.01600
H 	H 	0.85120 0.50360 0.73680 -0.04500
C 	C 	0.87750 0.25000 0.07200 0.43200
C 	C 	0.87449 0.35620 0.03182 -0.24800
C 	C 	0.78401 0.45546 0.06812 0.14500
C 	C 	0.78343 0.55212 0.02962 -0.23100
C 	C 	0.68075 0.66052 0.06658 0.36700
C 	C 	0.87757 0.54940 0.95626 0.17600
C 	C 	0.97179 0.44966 0.91956 -0.20800
C 	C 	0.07232 0.44962 0.84034 0.37000
C 	C 	0.96553 0.35332 0.95702 0.14800
C 	C 	0.28931 0.91072 0.07886 0.10700
C 	C 	0.19905 0.97094 0.19356 0.14500
C 	C 	0.77693 0.89788 0.07926 0.11300
C 	C 	0.66918 0.97572 0.18752 0.14800
C 	C 	0.19950 0.75000 0.92800 0.37200
C 	C 	0.26251 0.64380 0.96818 -0.03900
C 	C 	0.30759 0.54454 0.93188 -0.01500
C 	C 	0.36517 0.44788 0.97038 -0.01500
C 	C 	0.40785 0.33948 0.93342 0.30500
C 	C 	0.38323 0.45060 0.04374 -0.06900
C 	C 	0.34101 0.55034 0.08044 -0.04800
C 	C 	0.36228 0.55038 0.15966 0.29400
C 	C 	0.27587 0.64668 0.04298 -0.05300
C 	C 	0.27889 0.08928 0.92114 0.10900
C 	C 	0.36355 0.02906 0.80644 0.07300
C 	C 	0.75407 0.10212 0.92074 0.11300
C 	C 	0.83242 0.02428 0.81248 0.07100
C 	C 	0.19950 0.75000 0.42800 0.41000
C 	C 	0.15631 0.85620 0.46818 -0.15300
C 	C 	0.10213 0.95546 0.43188 0.10500
C 	C 	0.06305 0.05212 0.47038 -0.12700
C 	C 	0.99733 0.16052 0.43342 0.29400
C 	C 	0.08383 0.04940 0.54374 0.00900
C 	C 	0.14135 0.94966 0.58044 -0.08800
C 	C 	0.16266 0.94962 0.65966 0.35700
C 	C 	0.17255 0.85332 0.54298 0.06700
C 	C 	0.61817 0.41072 0.42114 0.10700
C 	C 	0.64261 0.47094 0.30644 0.10400
C 	C 	0.10619 0.39788 0.42074 0.11600
C 	C 	0.10670 0.47572 0.31248 0.10900
C 	C 	0.37750 0.25000 0.57200 0.40200
C 	C 	0.48069 0.14380 0.53182 -0.14300
C 	C 	0.48947 0.04454 0.56812 0.01600
C 	C 	0.58555 0.94788 0.52962 -0.09100
C 	C 	0.59127 0.83948 0.56658 0.32800
C 	C 	0.67697 0.95060 0.45626 0.09000
C 	C 	0.67145 0.05034 0.41956 -0.15700
C 	C 	0.77194 0.05038 0.34034 0.28100
C 	C 	0.56885 0.14668 0.45702 0.06900
C 	C 	0.45003 0.58928 0.57886 0.10700
C 	C 	0.41999 0.52906 0.69356 0.10600
C 	C 	0.92481 0.60212 0.57926 0.09000
C 	C 	0.89490 0.52428 0.68752 0.08400
N 	N 	0.08906 0.01380 0.15828 -0.28300
N 	N 	0.14803 0.97428 0.08326 -0.21100
N 	N 	0.32724 0.90518 0.14674 -0.30900
N 	N 	0.77369 0.01662 0.15320 -0.29100
N 	N 	0.84399 0.96518 0.08244 -0.21700
N 	N 	0.66582 0.90090 0.14366 -0.31100
N 	N 	0.26114 0.98620 0.84172 -0.21700
N 	N 	0.20557 0.02572 0.91674 -0.23200
N 	N 	0.37916 0.09482 0.85326 -0.30000
N 	N 	0.94351 0.98338 0.84680 -0.22200
N 	N 	0.89161 0.03482 0.91756 -0.24100
N 	N 	0.71038 0.09910 0.85634 -0.30200
N 	N 	0.49734 0.51380 0.34172 -0.25200
N 	N 	0.48129 0.47428 0.41674 -0.22900
N 	N 	0.72398 0.40518 0.35326 -0.30700
N 	N 	0.17689 0.51662 0.34680 -0.24800
N 	N 	0.17643 0.46518 0.41756 -0.22800
N 	N 	0.05948 0.40090 0.35634 -0.30100
N 	N 	0.35286 0.48620 0.65828 -0.25200
N 	N 	0.37231 0.52572 0.58326 -0.22800
N 	N 	0.48242 0.59482 0.64674 -0.30400
N 	N 	0.04031 0.48338 0.65320 -0.23600
N 	N 	0.05917 0.53482 0.58244 -0.21600
N 	N 	0.81672 0.59910 0.64366 -0.29900
O 	O 	0.91734 0.16836 0.03116 -0.53900
O 	O 	0.83912 0.24984 0.14612 -0.51400
O 	O 	0.63574 0.66310 0.14082 -0.49500
O 	O 	0.64338 0.74322 0.02602 -0.37100
O 	O 	0.09423 0.53358 0.81376 -0.34200
O 	O 	0.13398 0.35916 0.80128 -0.47100
O 	O 	0.11686 0.83164 0.96884 -0.45100
O 	O 	0.23508 0.75016 0.85388 -0.47900
O 	O 	0.43966 0.33690 0.85918 -0.47700
O 	O 	0.41262 0.25678 0.97398 -0.33000
O 	O 	0.44157 0.46642 0.18624 -0.33300
O 	O 	0.29442 0.64084 0.19872 -0.45700
O 	O 	0.19850 0.66836 0.46884 -0.49400
O 	O 	0.23524 0.74984 0.35388 -0.49500
O 	O 	0.02656 0.16310 0.35918 -0.46900
O 	O 	0.91940 0.24322 0.47398 -0.35200
O 	O 	0.15799 0.03358 0.68624 -0.36700
O 	O 	0.18526 0.85916 0.69872 -0.46400
O 	O 	0.33570 0.33164 0.53116 -0.49700
O 	O 	0.33896 0.25016 0.64612 -0.49500
O 	O 	0.54884 0.83690 0.64082 -0.47400
O 	O 	0.63660 0.75678 0.52602 -0.35100
O 	O 	0.87781 0.96642 0.31376 -0.30900
O 	O 	0.74314 0.14084 0.30128 -0.46600
