data_crystal

_cell_length_a 12.34000
_cell_length_b 19.90290
_cell_length_c 19.90290
_cell_angle_alpha 102.77300
_cell_angle_beta  94.55930
_cell_angle_gamma 94.55930

_symmetry_space_group_name_	'P 1'
_symmetry_space_group_name_H-M	'P 1'

loop_
_symmetry_equiv_pos_as_xyz
  x,y,z

loop_
_atom_site_label
_atom_site_type_symbol
_atom_site_fract_x
_atom_site_fract_y
_atom_site_fract_z
_atom_site_charge
Zn	Zn	0.61190 0.07639 0.56510 1.20600
Zn	Zn	0.80880 0.01687 0.52632 1.19900
Zn	Zn	0.41050 0.33978 0.60817 1.21000
Zn	Zn	0.50006 0.48728 0.74876 1.20300
Zn	Zn	0.11190 0.56510 0.07639 1.20400
Zn	Zn	0.30880 0.52632 0.01687 1.19800
Zn	Zn	0.91050 0.60817 0.33978 1.21100
Zn	Zn	0.00006 0.74876 0.48728 1.20000
H 	H 	0.49380 0.20020 0.54180 0.04100
H 	H 	0.55330 0.22080 0.61900 0.03800
H 	H 	0.52690 0.14330 0.69750 0.03900
H 	H 	0.45160 0.07140 0.67100 0.03100
H 	H 	0.36220 0.04020 0.55200 0.02300
H 	H 	0.37820 0.09250 0.50190 0.03000
H 	H 	0.31990 0.25180 0.70580 0.04100
H 	H 	0.44960 0.25010 0.71730 0.03200
H 	H 	0.20380 0.14220 0.66280 0.03100
H 	H 	0.25860 0.07090 0.64830 0.03100
H 	H 	0.29650 0.19920 0.52240 0.03400
H 	H 	0.22700 0.22050 0.58710 0.02800
H 	H 	0.86490 0.87270 0.47210 0.04000
H 	H 	0.91700 0.89080 0.55100 0.04300
H 	H 	0.98480 0.02290 0.42910 -0.01000
H 	H 	0.90690 0.95290 0.39790 0.02300
H 	H 	0.03500 0.99840 0.59800 0.10500
H 	H 	0.06210 0.05030 0.54910 0.07000
H 	H 	0.98280 0.84400 0.37860 0.04200
H 	H 	0.11100 0.84200 0.39700 0.04700
H 	H 	0.17670 0.01970 0.45930 -0.00400
H 	H 	0.22690 0.94670 0.44730 0.02500
H 	H 	0.18810 0.86920 0.51980 0.03800
H 	H 	0.10860 0.88890 0.57950 0.04200
H 	H 	0.65870 0.85990 0.34390 0.05700
H 	H 	0.27880 0.86260 0.32300 0.06200
H 	H 	0.38950 0.94680 0.40460 0.04800
H 	H 	0.64040 0.75510 0.24630 0.06500
H 	H 	0.53360 0.67370 0.16230 0.02900
H 	H 	0.26090 0.75500 0.22900 0.05200
H 	H 	0.92560 0.15980 0.40600 0.03700
H 	H 	0.97140 0.25060 0.35440 0.06200
H 	H 	0.65080 0.24450 0.46410 0.06500
H 	H 	0.93270 0.36060 0.32480 0.06000
H 	H 	0.67220 0.45390 0.39610 0.04200
H 	H 	0.61850 0.36080 0.44160 0.06400
H 	H 	0.11890 0.34100 0.63260 0.04400
H 	H 	0.97760 0.50900 0.79980 0.08300
H 	H 	0.16420 0.50390 0.79870 0.03500
H 	H 	0.92800 0.29400 0.58220 0.06300
H 	H 	0.74170 0.29760 0.58260 0.04500
H 	H 	0.78850 0.45840 0.75120 0.05900
H 	H 	0.77680 0.85060 0.62920 0.06300
H 	H 	0.44140 0.82920 0.72140 0.06900
H 	H 	0.48730 0.92350 0.67570 0.04700
H 	H 	0.81830 0.73750 0.65130 0.07000
H 	H 	0.77020 0.64180 0.69460 0.04300
H 	H 	0.48430 0.71400 0.74340 0.06100
H 	H 	0.99380 0.54180 0.20020 0.04000
H 	H 	0.05330 0.61900 0.22080 0.02900
H 	H 	0.02690 0.69750 0.14330 0.02800
H 	H 	0.95160 0.67100 0.07140 0.02900
H 	H 	0.86220 0.55200 0.04020 0.02400
H 	H 	0.87820 0.50190 0.09250 0.03200
H 	H 	0.81990 0.70580 0.25180 0.04200
H 	H 	0.94960 0.71730 0.25010 0.03500
H 	H 	0.70380 0.66280 0.14220 0.03200
H 	H 	0.75860 0.64830 0.07090 0.03100
H 	H 	0.79650 0.52240 0.19920 0.03500
H 	H 	0.72700 0.58710 0.22050 0.02900
H 	H 	0.36490 0.47210 0.87270 0.04200
H 	H 	0.41700 0.55100 0.89080 0.04300
H 	H 	0.48480 0.42910 0.02290 -0.00900
H 	H 	0.40690 0.39790 0.95290 0.02500
H 	H 	0.53500 0.59800 0.99840 0.10900
H 	H 	0.56210 0.54910 0.05030 0.07200
H 	H 	0.48280 0.37860 0.84400 0.03200
H 	H 	0.61100 0.39700 0.84200 0.04300
H 	H 	0.67670 0.45930 0.01970 -0.00400
H 	H 	0.72690 0.44730 0.94670 0.02400
H 	H 	0.68810 0.51980 0.86920 0.03900
H 	H 	0.60860 0.57950 0.88890 0.04400
H 	H 	0.15870 0.34390 0.85990 0.05500
H 	H 	0.77880 0.32300 0.86260 0.06500
H 	H 	0.88950 0.40460 0.94680 0.04500
H 	H 	0.14040 0.24630 0.75510 0.06900
H 	H 	0.03360 0.16230 0.67370 0.01800
H 	H 	0.76090 0.22900 0.75500 0.05300
H 	H 	0.42560 0.40600 0.15980 0.03600
H 	H 	0.47140 0.35440 0.25060 0.06000
H 	H 	0.15080 0.46410 0.24450 0.06400
H 	H 	0.43270 0.32480 0.36060 0.05800
H 	H 	0.17220 0.39610 0.45390 0.04100
H 	H 	0.11850 0.44160 0.36080 0.06200
H 	H 	0.61890 0.63260 0.34100 0.04500
H 	H 	0.47760 0.79980 0.50900 0.06900
H 	H 	0.66420 0.79870 0.50390 0.04000
H 	H 	0.42800 0.58220 0.29400 0.06300
H 	H 	0.24170 0.58260 0.29760 0.04400
H 	H 	0.28850 0.75120 0.45840 0.05500
H 	H 	0.27680 0.62920 0.85060 0.06100
H 	H 	0.94140 0.72140 0.82920 0.08000
H 	H 	0.98730 0.67570 0.92350 0.05200
H 	H 	0.31830 0.65130 0.73750 0.06700
H 	H 	0.27020 0.69460 0.64180 0.04600
H 	H 	0.98430 0.74340 0.71400 0.07400
C 	C 	0.48600 0.19737 0.59019 -0.03400
C 	C 	0.46030 0.12038 0.66754 -0.01900
C 	C 	0.37200 0.08975 0.55053 -0.00800
C 	C 	0.38230 0.22752 0.68796 -0.02100
C 	C 	0.26870 0.12012 0.64608 0.00900
C 	C 	0.29110 0.19692 0.57118 -0.01300
C 	C 	0.93050 0.89468 0.50362 -0.03000
C 	C 	0.97150 0.97362 0.43076 0.07100
C 	C 	0.04820 0.00085 0.55009 -0.16100
C 	C 	0.04660 0.86596 0.41166 -0.02900
C 	C 	0.16160 0.97050 0.46070 0.06900
C 	C 	0.12230 0.89281 0.53213 -0.02200
C 	C 	0.60370 0.96015 0.44009 0.41700
C 	C 	0.53540 0.90796 0.38270 -0.08800
C 	C 	0.58150 0.85984 0.33966 -0.02500
C 	C 	0.51710 0.80801 0.28723 0.03100
C 	C 	0.40300 0.80842 0.28142 0.02100
C 	C 	0.35580 0.86131 0.32661 -0.08000
C 	C 	0.42120 0.91070 0.37550 0.01900
C 	C 	0.56340 0.75632 0.24232 -0.09300
C 	C 	0.49990 0.70768 0.19288 0.02700
C 	C 	0.38500 0.70661 0.18603 -0.10000
C 	C 	0.33820 0.75612 0.23140 -0.02000
C 	C 	0.31790 0.65012 0.13370 0.39500
C 	C 	0.75380 0.13629 0.47481 0.37600
C 	C 	0.78230 0.19480 0.43986 -0.08400
C 	C 	0.87940 0.19602 0.40718 0.01300
C 	C 	0.90660 0.25006 0.37714 -0.09000
C 	C 	0.84040 0.30488 0.37952 0.03000
C 	C 	0.74410 0.30322 0.41230 0.02200
C 	C 	0.71630 0.24632 0.44226 -0.03500
C 	C 	0.87060 0.36117 0.35003 -0.05100
C 	C 	0.81020 0.41649 0.35811 -0.06300
C 	C 	0.71490 0.41577 0.39181 0.00000
C 	C 	0.68300 0.36051 0.41849 -0.08200
C 	C 	0.85210 0.47991 0.33309 0.31700
C 	C 	0.27930 0.41856 0.71516 0.39600
C 	C 	0.15770 0.42086 0.71462 -0.10800
C 	C 	0.08950 0.37458 0.66604 -0.02200
C 	C 	0.97400 0.37611 0.66495 0.02000
C 	C 	0.93130 0.42586 0.71688 0.04700
C 	C 	0.00500 0.47455 0.76627 -0.11800
C 	C 	0.11540 0.47166 0.76530 0.04000
C 	C 	0.90020 0.32796 0.61618 -0.07800
C 	C 	0.78990 0.32911 0.61691 0.01500
C 	C 	0.74760 0.37777 0.66921 -0.08800
C 	C 	0.81770 0.42528 0.71720 -0.04000
C 	C 	0.62760 0.37797 0.67051 0.36800
C 	C 	0.66480 0.95569 0.61543 0.38800
C 	C 	0.63700 0.89583 0.64647 -0.08600
C 	C 	0.70800 0.84562 0.64686 -0.02700
C 	C 	0.67980 0.78711 0.67309 0.02500
C 	C 	0.57920 0.78015 0.70025 0.03200
C 	C 	0.50870 0.83272 0.70168 -0.08700
C 	C 	0.53630 0.88884 0.67496 0.02200
C 	C 	0.75070 0.73371 0.67063 -0.08200
C 	C 	0.72200 0.67691 0.69609 0.00100
C 	C 	0.62240 0.67000 0.72448 -0.06300
C 	C 	0.55260 0.71961 0.72539 -0.04500
C 	C 	0.58690 0.60510 0.74530 0.29300
C 	C 	0.98600 0.59019 0.19737 -0.01900
C 	C 	0.96030 0.66754 0.12038 -0.00300
C 	C 	0.87200 0.55053 0.08975 -0.00900
C 	C 	0.88230 0.68796 0.22752 -0.02100
C 	C 	0.76870 0.64608 0.12012 0.00900
C 	C 	0.79110 0.57118 0.19692 -0.01300
C 	C 	0.43050 0.50362 0.89468 -0.03800
C 	C 	0.47150 0.43076 0.97362 0.06000
C 	C 	0.54820 0.55009 0.00085 -0.16300
C 	C 	0.54660 0.41166 0.86596 -0.01300
C 	C 	0.66160 0.46070 0.97050 0.07100
C 	C 	0.62230 0.53213 0.89281 -0.02200
C 	C 	0.10370 0.44009 0.96015 0.42100
C 	C 	0.03540 0.38270 0.90796 -0.09900
C 	C 	0.08150 0.33966 0.85984 -0.02000
C 	C 	0.01710 0.28723 0.80801 0.02700
C 	C 	0.90300 0.28142 0.80842 0.02800
C 	C 	0.85580 0.32661 0.86131 -0.08800
C 	C 	0.92120 0.37550 0.91070 0.03200
C 	C 	0.06340 0.24232 0.75632 -0.10700
C 	C 	0.99990 0.19288 0.70768 0.04900
C 	C 	0.88500 0.18603 0.70661 -0.10600
C 	C 	0.83820 0.23140 0.75612 -0.01900
C 	C 	0.81790 0.13370 0.65012 0.39700
C 	C 	0.25380 0.47481 0.13629 0.37600
C 	C 	0.28230 0.43986 0.19480 -0.08600
C 	C 	0.37940 0.40718 0.19602 0.01300
C 	C 	0.40660 0.37714 0.25006 -0.09100
C 	C 	0.34040 0.37952 0.30488 0.02900
C 	C 	0.24410 0.41230 0.30322 0.02100
C 	C 	0.21630 0.44226 0.24632 -0.03500
C 	C 	0.37060 0.35003 0.36117 -0.05100
C 	C 	0.31020 0.35811 0.41649 -0.06400
C 	C 	0.21490 0.39181 0.41577 -0.00000
C 	C 	0.18300 0.41849 0.36051 -0.08200
C 	C 	0.35210 0.33309 0.47991 0.31700
C 	C 	0.77930 0.71516 0.41856 0.39500
C 	C 	0.65770 0.71462 0.42086 -0.10300
C 	C 	0.58950 0.66604 0.37458 -0.01900
C 	C 	0.47400 0.66495 0.37611 0.01900
C 	C 	0.43130 0.71688 0.42586 0.03100
C 	C 	0.50500 0.76627 0.47455 -0.09000
C 	C 	0.61540 0.76530 0.47166 0.02600
C 	C 	0.40020 0.61618 0.32796 -0.08000
C 	C 	0.28990 0.61691 0.32911 0.01700
C 	C 	0.24760 0.66921 0.37777 -0.09300
C 	C 	0.31770 0.71720 0.42528 -0.03200
C 	C 	0.12760 0.67051 0.37797 0.37000
C 	C 	0.16480 0.61543 0.95569 0.38900
C 	C 	0.13700 0.64647 0.89583 -0.08900
C 	C 	0.20800 0.64686 0.84562 -0.02200
C 	C 	0.17980 0.67309 0.78711 0.01500
C 	C 	0.07920 0.70025 0.78015 0.04600
C 	C 	0.00870 0.70168 0.83272 -0.10600
C 	C 	0.03630 0.67496 0.88884 0.02000
C 	C 	0.25070 0.67063 0.73371 -0.07300
C 	C 	0.22200 0.69609 0.67691 -0.01000
C 	C 	0.12240 0.72448 0.67000 -0.05000
C 	C 	0.05260 0.72539 0.71961 -0.07100
C 	C 	0.08690 0.74530 0.60510 0.27800
N 	N 	0.47360 0.12347 0.59413 -0.20200
N 	N 	0.39150 0.23304 0.61426 -0.19100
N 	N 	0.36620 0.15405 0.69175 -0.09600
N 	N 	0.27600 0.12416 0.57566 -0.10100
N 	N 	0.94800 0.96929 0.50191 -0.17400
N 	N 	0.02620 0.85735 0.48247 -0.18800
N 	N 	0.06560 0.93826 0.40942 -0.10900
N 	N 	0.14300 0.96617 0.53135 -0.06800
N 	N 	0.97360 0.59413 0.12347 -0.20200
N 	N 	0.89150 0.61426 0.23304 -0.19200
N 	N 	0.86620 0.69175 0.15405 -0.09700
N 	N 	0.77600 0.57566 0.12416 -0.10100
N 	N 	0.44800 0.50191 0.96929 -0.17500
N 	N 	0.52620 0.48247 0.85735 -0.18500
N 	N 	0.56560 0.40942 0.93826 -0.10600
N 	N 	0.64300 0.53135 0.96617 -0.06700
O 	O 	0.55280 0.00529 0.47719 -0.50800
O 	O 	0.70470 0.95490 0.44846 -0.45100
O 	O 	0.36810 0.61052 0.09332 -0.48800
O 	O 	0.21560 0.64657 0.13501 -0.46500
O 	O 	0.67040 0.13926 0.50652 -0.47400
O 	O 	0.81770 0.08894 0.46976 -0.47100
O 	O 	0.92490 0.47447 0.29193 -0.32400
O 	O 	0.81310 0.53393 0.35655 -0.47300
O 	O 	0.59590 0.99825 0.61525 -0.43800
O 	O 	0.33853 0.47098 0.74830 -0.49100
O 	O 	0.31433 0.36396 0.68326 -0.51000
O 	O 	0.56959 0.34547 0.61581 -0.49200
O 	O 	0.58990 0.40743 0.72551 -0.50300
O 	O 	0.75410 0.95729 0.58959 -0.45600
O 	O 	0.64910 0.55680 0.73910 -0.37900
O 	O 	0.49440 0.59563 0.76369 -0.40900
O 	O 	0.05280 0.47719 0.00529 -0.51200
O 	O 	0.20470 0.44846 0.95490 -0.45300
O 	O 	0.86810 0.09332 0.61052 -0.48700
O 	O 	0.71560 0.13501 0.64657 -0.46500
O 	O 	0.17040 0.50652 0.13926 -0.47600
O 	O 	0.31770 0.46976 0.08894 -0.47100
O 	O 	0.42490 0.29193 0.47447 -0.32700
O 	O 	0.31310 0.35655 0.53393 -0.47500
O 	O 	0.09590 0.61525 0.99825 -0.44100
O 	O 	0.83853 0.74830 0.47098 -0.48900
O 	O 	0.81433 0.68326 0.36396 -0.50800
O 	O 	0.06959 0.61581 0.34547 -0.49600
O 	O 	0.08990 0.72551 0.40743 -0.50700
O 	O 	0.25410 0.58959 0.95729 -0.45700
O 	O 	0.14910 0.73910 0.55680 -0.37600
O 	O 	0.99440 0.76369 0.59563 -0.39900
