data_crystal

_cell_length_a 11.85860
_cell_length_b 16.48850
_cell_length_c 17.45160
_cell_angle_alpha 89.64650
_cell_angle_beta  89.01690
_cell_angle_gamma 68.92420

_symmetry_space_group_name_	'P 1'
_symmetry_space_group_name_H-M	'P 1'

loop_
_symmetry_equiv_pos_as_xyz
  x,y,z

loop_
_atom_site_label
_atom_site_type_symbol
_atom_site_fract_x
_atom_site_fract_y
_atom_site_fract_z
_atom_site_charge
Zn	Zn	0.85271 0.13004 0.67142 1.24100
Zn	Zn	0.01725 0.13004 0.82858 1.24000
Zn	Zn	0.14729 0.86996 0.32858 1.24000
Zn	Zn	0.98275 0.86996 0.17142 1.23900
H 	H 	0.73650 0.93220 0.75570 0.04400
H 	H 	0.88940 0.96940 0.95040 0.04900
H 	H 	0.79000 0.67500 0.82320 0.08700
H 	H 	0.76260 0.77480 0.93600 0.04600
H 	H 	0.64130 0.54560 0.65280 0.07700
H 	H 	0.72770 0.39860 0.64750 0.02700
H 	H 	0.33130 0.93220 0.74430 0.04400
H 	H 	0.14120 0.96940 0.54960 0.04900
H 	H 	0.53500 0.67500 0.67680 0.08700
H 	H 	0.46260 0.77480 0.56400 0.04500
H 	H 	0.81310 0.54560 0.84720 0.07800
H 	H 	0.87370 0.39860 0.85250 0.02800
H 	H 	0.26350 0.06780 0.24430 0.04400
H 	H 	0.11060 0.03060 0.04960 0.04900
H 	H 	0.21000 0.32500 0.17680 0.08700
H 	H 	0.23740 0.22520 0.06400 0.04600
H 	H 	0.35870 0.45440 0.34720 0.07700
H 	H 	0.27230 0.60140 0.35250 0.02700
H 	H 	0.66870 0.06780 0.25570 0.04400
H 	H 	0.85880 0.03060 0.45040 0.04900
H 	H 	0.46500 0.32500 0.32320 0.08700
H 	H 	0.53740 0.22520 0.43600 0.04500
H 	H 	0.18690 0.45440 0.15280 0.07800
H 	H 	0.12630 0.60140 0.14750 0.02800
H 	H 	0.54970 0.90060 0.75000 0.09700
H 	H 	0.45030 0.09940 0.25000 0.09700
C 	C 	0.67731 0.79758 0.79510 0.10600
C 	C 	0.81525 0.96230 0.84700 -0.11800
C 	C 	0.75953 0.91634 0.80590 0.01800
C 	C 	0.85125 0.93850 0.92330 0.04800
C 	C 	0.73757 0.84626 0.83920 -0.04700
C 	C 	0.72320 0.70560 0.79400 -0.14900
C 	C 	0.77445 0.82270 0.91400 0.00700
C 	C 	0.84699 0.03422 0.80830 0.43400
C 	C 	0.86652 0.84536 0.03830 0.36900
C 	C 	0.83006 0.87008 0.95740 -0.10000
C 	C 	0.69274 0.51612 0.69160 -0.12300
C 	C 	0.74096 0.42788 0.68980 0.07200
C 	C 	0.52511 0.79758 0.70490 0.10600
C 	C 	0.22245 0.96230 0.65300 -0.11600
C 	C 	0.32413 0.91634 0.69410 0.01700
C 	C 	0.21025 0.93850 0.57670 0.04700
C 	C 	0.41617 0.84626 0.66080 -0.04700
C 	C 	0.57120 0.70560 0.70600 -0.14900
C 	C 	0.40285 0.82270 0.58600 0.00700
C 	C 	0.11879 0.03422 0.69170 0.43200
C 	C 	0.28812 0.84536 0.46170 0.37000
C 	C 	0.29986 0.87008 0.54260 -0.10100
C 	C 	0.79114 0.51612 0.80840 -0.12300
C 	C 	0.83116 0.42788 0.81020 0.07200
C 	C 	0.32269 0.20242 0.20490 0.10600
C 	C 	0.18475 0.03770 0.15300 -0.11800
C 	C 	0.24047 0.08366 0.19410 0.01800
C 	C 	0.14875 0.06150 0.07670 0.04800
C 	C 	0.26243 0.15374 0.16080 -0.04700
C 	C 	0.27680 0.29440 0.20600 -0.14900
C 	C 	0.22555 0.17730 0.08600 0.00700
C 	C 	0.15301 0.96578 0.19170 0.43400
C 	C 	0.13348 0.15464 0.96170 0.36900
C 	C 	0.16994 0.12992 0.04260 -0.10000
C 	C 	0.30726 0.48388 0.30840 -0.12300
C 	C 	0.25904 0.57212 0.31020 0.07200
C 	C 	0.47489 0.20242 0.29510 0.10600
C 	C 	0.77755 0.03770 0.34700 -0.11600
C 	C 	0.67587 0.08366 0.30590 0.01700
C 	C 	0.78975 0.06150 0.42330 0.04700
C 	C 	0.58383 0.15374 0.33920 -0.04700
C 	C 	0.42880 0.29440 0.29400 -0.14900
C 	C 	0.59715 0.17730 0.41400 0.00700
C 	C 	0.88121 0.96578 0.30830 0.43200
C 	C 	0.71188 0.15464 0.53830 0.37000
C 	C 	0.70014 0.12992 0.45740 -0.10100
C 	C 	0.20886 0.48388 0.19160 -0.12300
C 	C 	0.16884 0.57212 0.18980 0.07200
C 	C 	0.57990 0.84020 0.75000 -0.16900
C 	C 	0.71840 0.56320 0.75000 0.05000
C 	C 	0.66950 0.66100 0.75000 0.07500
C 	C 	0.85810 0.28380 0.75000 0.44900
C 	C 	0.80990 0.38020 0.75000 -0.15300
C 	C 	0.42010 0.15980 0.25000 -0.16900
C 	C 	0.28160 0.43680 0.25000 0.05000
C 	C 	0.33050 0.33900 0.25000 0.07500
C 	C 	0.14190 0.71620 0.25000 0.44900
C 	C 	0.19010 0.61980 0.25000 -0.15300
O 	O 	0.91843 0.88974 0.07048 -0.45200
O 	O 	0.92617 0.24746 0.80359 -0.51800
O 	O 	0.90137 0.07126 0.84565 -0.49700
O 	O 	0.81689 0.04942 0.74028 -0.49700
O 	O 	0.84936 0.78388 0.06850 -0.29600
O 	O 	0.19183 0.88974 0.42952 -0.45100
O 	O 	0.82637 0.24746 0.69641 -0.51900
O 	O 	0.02737 0.07126 0.65435 -0.49900
O 	O 	0.13369 0.04942 0.75972 -0.49800
O 	O 	0.36676 0.78388 0.43150 -0.29500
O 	O 	0.08157 0.11026 0.92952 -0.45200
O 	O 	0.07383 0.75254 0.19641 -0.51800
O 	O 	0.09863 0.92874 0.15435 -0.49700
O 	O 	0.18311 0.95058 0.25972 -0.49700
O 	O 	0.15064 0.21612 0.93150 -0.29600
O 	O 	0.80817 0.11026 0.57048 -0.45100
O 	O 	0.17363 0.75254 0.30359 -0.51900
O 	O 	0.97263 0.92874 0.34565 -0.49900
O 	O 	0.86631 0.95058 0.24028 -0.49800
O 	O 	0.63324 0.21612 0.56850 -0.29500
