data_crystal

_cell_length_a 10.21510
_cell_length_b 13.11700
_cell_length_c 14.13600
_cell_angle_alpha 90.00000
_cell_angle_beta  90.00000
_cell_angle_gamma 90.00000

_symmetry_space_group_name_	'P 1'
_symmetry_space_group_name_H-M	'P 1'

loop_
_symmetry_equiv_pos_as_xyz
  x,y,z

loop_
_atom_site_label
_atom_site_type_symbol
_atom_site_fract_x
_atom_site_fract_y
_atom_site_fract_z
_atom_site_charge
Zn	Zn	0.11409 0.93077 0.28564 1.23400
Zn	Zn	0.09206 0.23357 0.27964 1.21700
Zn	Zn	0.38591 0.06923 0.78564 1.23400
Zn	Zn	0.40794 0.76643 0.77964 1.21700
Zn	Zn	0.88591 0.43077 0.21436 1.23400
Zn	Zn	0.90794 0.73357 0.22036 1.21700
Zn	Zn	0.61409 0.56923 0.71436 1.23400
Zn	Zn	0.59206 0.26643 0.72036 1.21700
H 	H 	0.52360 0.95490 0.30060 0.04500
H 	H 	0.75000 0.01040 0.29150 0.03700
H 	H 	0.67350 0.78290 0.45070 0.05000
H 	H 	0.51800 0.86370 0.55360 0.04600
H 	H 	0.97640 0.04510 0.80060 0.04500
H 	H 	0.75000 0.98960 0.79150 0.03800
H 	H 	0.82650 0.21710 0.95070 0.05000
H 	H 	0.98200 0.13630 0.05360 0.04600
H 	H 	0.47640 0.45490 0.19940 0.04600
H 	H 	0.25000 0.51040 0.20850 0.03700
H 	H 	0.32650 0.28290 0.04930 0.05000
H 	H 	0.48200 0.36370 0.94640 0.04600
H 	H 	0.02360 0.54510 0.69940 0.04700
H 	H 	0.25000 0.48960 0.70850 0.03600
H 	H 	0.17350 0.71710 0.54930 0.05000
H 	H 	0.01800 0.63630 0.44640 0.04600
C 	C 	0.46310 0.09510 0.26190 -0.12100
C 	C 	0.54860 0.02050 0.28370 -0.00100
C 	C 	0.67910 0.05250 0.27800 0.01000
C 	C 	0.69140 0.15090 0.25090 -0.12600
C 	C 	0.31810 0.09310 0.26610 0.42800
C 	C 	0.81090 0.21260 0.24380 0.42900
C 	C 	0.79510 0.90440 0.46130 -0.11100
C 	C 	0.68630 0.84710 0.47710 -0.00700
C 	C 	0.59710 0.89340 0.53630 0.00500
C 	C 	0.63590 0.98650 0.56670 -0.11900
C 	C 	0.90450 0.88430 0.39680 0.39200
C 	C 	0.57200 0.05700 0.63430 0.41900
C 	C 	0.03690 0.90490 0.76190 -0.12200
C 	C 	0.95140 0.97950 0.78370 0.00100
C 	C 	0.82090 0.94750 0.77800 0.00900
C 	C 	0.80860 0.84910 0.75090 -0.12600
C 	C 	0.18190 0.90690 0.76610 0.42800
C 	C 	0.68910 0.78740 0.74380 0.42900
C 	C 	0.70490 0.09560 0.96130 -0.11000
C 	C 	0.81370 0.15290 0.97710 -0.00700
C 	C 	0.90290 0.10660 0.03630 0.00300
C 	C 	0.86410 0.01350 0.06670 -0.11400
C 	C 	0.59550 0.11570 0.89680 0.39100
C 	C 	0.92800 0.94300 0.13430 0.41400
C 	C 	0.53690 0.59510 0.23810 -0.12100
C 	C 	0.45140 0.52050 0.21630 -0.00200
C 	C 	0.32090 0.55250 0.22200 0.01000
C 	C 	0.30860 0.65090 0.24910 -0.12700
C 	C 	0.68190 0.59310 0.23390 0.42700
C 	C 	0.18910 0.71260 0.25620 0.42900
C 	C 	0.20490 0.40440 0.03870 -0.11000
C 	C 	0.31370 0.34710 0.02290 -0.00500
C 	C 	0.40290 0.39340 0.96370 0.00300
C 	C 	0.36410 0.48650 0.93330 -0.11800
C 	C 	0.09550 0.38430 0.10320 0.39100
C 	C 	0.42800 0.55700 0.86570 0.42000
C 	C 	0.96310 0.40490 0.73810 -0.11700
C 	C 	0.04860 0.47950 0.71630 -0.00600
C 	C 	0.17910 0.44750 0.72200 0.01200
C 	C 	0.19140 0.34910 0.74910 -0.12700
C 	C 	0.81810 0.40690 0.73390 0.42600
C 	C 	0.31090 0.28740 0.75620 0.43000
C 	C 	0.29510 0.59560 0.53870 -0.11000
C 	C 	0.18630 0.65290 0.52290 -0.00700
C 	C 	0.09710 0.60660 0.46370 0.00600
C 	C 	0.13590 0.51350 0.43330 -0.12000
C 	C 	0.40450 0.61570 0.60320 0.39100
C 	C 	0.07200 0.44300 0.36570 0.42100
S 	S 	0.54148 0.20639 0.23130 0.08100
S 	S 	0.78631 0.01723 0.52215 0.07200
S 	S 	0.95852 0.79361 0.73130 0.08200
S 	S 	0.71369 0.98277 0.02215 0.06700
S 	S 	0.45852 0.70639 0.26870 0.08000
S 	S 	0.21369 0.51723 0.97785 0.07000
S 	S 	0.04148 0.29361 0.76870 0.07700
S 	S 	0.28631 0.48277 0.47785 0.07200
O 	O 	0.27040 0.01080 0.29690 -0.49900
O 	O 	0.79440 0.30250 0.21390 -0.49800
O 	O 	0.98900 0.95440 0.38640 -0.48400
O 	O 	0.46290 0.03040 0.66550 -0.51000
O 	O 	0.25810 0.17060 0.24240 -0.49400
O 	O 	0.90950 0.80050 0.35580 -0.46500
O 	O 	0.63210 0.13720 0.65580 -0.51200
O 	O 	0.91700 0.17430 0.26940 -0.51800
O 	O 	0.22960 0.98920 0.79690 -0.49700
O 	O 	0.70560 0.69750 0.71390 -0.49800
O 	O 	0.51100 0.04560 0.88640 -0.48400
O 	O 	0.03710 0.96960 0.16550 -0.50600
O 	O 	0.24190 0.82940 0.74240 -0.49400
O 	O 	0.59050 0.19950 0.85580 -0.46500
O 	O 	0.86790 0.86280 0.15580 -0.51200
O 	O 	0.58300 0.82570 0.76940 -0.51700
O 	O 	0.72960 0.51080 0.20310 -0.49900
O 	O 	0.20560 0.80250 0.28610 -0.49800
O 	O 	0.01100 0.45440 0.11360 -0.48300
O 	O 	0.53710 0.53040 0.83450 -0.50900
O 	O 	0.74190 0.67060 0.25760 -0.49400
O 	O 	0.09050 0.30050 0.14420 -0.46400
O 	O 	0.36790 0.63720 0.84420 -0.51200
O 	O 	0.08300 0.67430 0.23060 -0.51700
O 	O 	0.77040 0.48920 0.70310 -0.49800
O 	O 	0.29440 0.19750 0.78610 -0.49900
O 	O 	0.48900 0.54560 0.61360 -0.48400
O 	O 	0.96290 0.46960 0.33450 -0.51000
O 	O 	0.75810 0.32940 0.75760 -0.49400
O 	O 	0.40950 0.69950 0.64420 -0.46500
O 	O 	0.13210 0.36280 0.34420 -0.51300
O 	O 	0.41700 0.32570 0.73060 -0.51800
