data_crystal

_cell_length_a 11.81050
_cell_length_b 18.77750
_cell_length_c 18.77750
_cell_angle_alpha 90.00000
_cell_angle_beta  90.00000
_cell_angle_gamma 90.00000

_symmetry_space_group_name_	'P 1'
_symmetry_space_group_name_H-M	'P 1'

loop_
_symmetry_equiv_pos_as_xyz
  x,y,z

loop_
_atom_site_label
_atom_site_type_symbol
_atom_site_fract_x
_atom_site_fract_y
_atom_site_fract_z
_atom_site_charge
Zn	Zn	0.50004 0.14728 0.81009 1.19100
Zn	Zn	0.32154 0.27739 0.77320 1.23500
Zn	Zn	0.50004 0.85272 0.18991 1.19100
Zn	Zn	0.32154 0.72261 0.22680 1.23500
Zn	Zn	0.00004 0.18991 0.14728 1.18600
Zn	Zn	0.82154 0.22680 0.27739 1.23600
Zn	Zn	0.00004 0.81009 0.85272 1.18600
Zn	Zn	0.82154 0.77320 0.72261 1.23600
Zn	Zn	0.50004 0.64728 0.68991 1.19000
Zn	Zn	0.32154 0.77739 0.72680 1.23400
Zn	Zn	0.50004 0.35272 0.31009 1.19000
Zn	Zn	0.32154 0.22261 0.27320 1.23400
Zn	Zn	0.00004 0.68991 0.35272 1.18500
Zn	Zn	0.82154 0.72680 0.22261 1.23500
Zn	Zn	0.00004 0.31009 0.64728 1.18500
Zn	Zn	0.82154 0.27320 0.77739 1.23500
H 	H 	0.76470 0.23090 0.00110 0.03500
H 	H 	0.38780 0.27350 0.04750 0.04500
H 	H 	0.76470 0.76910 0.99890 0.03500
H 	H 	0.38780 0.72650 0.95250 0.04500
H 	H 	0.26470 0.99890 0.23090 0.04400
H 	H 	0.88780 0.95250 0.27350 0.01300
H 	H 	0.26470 0.00110 0.76910 0.04400
H 	H 	0.88780 0.04750 0.72650 0.01300
H 	H 	0.76470 0.73090 0.49890 0.03500
H 	H 	0.38780 0.77350 0.45250 0.04500
H 	H 	0.76470 0.26910 0.50110 0.03500
H 	H 	0.38780 0.22650 0.54750 0.04500
H 	H 	0.26470 0.49890 0.26910 0.04500
H 	H 	0.88780 0.45250 0.22650 0.01300
H 	H 	0.26470 0.50110 0.73090 0.04500
H 	H 	0.88780 0.54750 0.77350 0.01300
C 	C 	0.50040 0.26040 0.96760 -0.07400
C 	C 	0.61520 0.24700 0.95380 -0.09100
C 	C 	0.68840 0.23880 0.01040 0.02200
C 	C 	0.65210 0.24180 0.08100 -0.08300
C 	C 	0.53810 0.25640 0.09560 -0.05600
C 	C 	0.46390 0.26480 0.03840 0.00000
C 	C 	0.41030 0.26900 0.91090 0.34200
C 	C 	0.67040 0.24070 0.88100 0.37400
C 	C 	0.73990 0.22670 0.13690 0.40900
C 	C 	0.48860 0.26420 0.16930 0.40200
C 	C 	0.50040 0.73960 0.03240 -0.07400
C 	C 	0.61520 0.75300 0.04620 -0.09100
C 	C 	0.68840 0.76120 0.98960 0.02200
C 	C 	0.65210 0.75820 0.91900 -0.08300
C 	C 	0.53810 0.74360 0.90440 -0.05600
C 	C 	0.46390 0.73520 0.96160 0.00000
C 	C 	0.41030 0.73100 0.08910 0.34200
C 	C 	0.67040 0.75930 0.11900 0.37400
C 	C 	0.73990 0.77330 0.86310 0.40900
C 	C 	0.48860 0.73580 0.83070 0.40200
C 	C 	0.00040 0.03240 0.26040 -0.15000
C 	C 	0.11520 0.04620 0.24700 -0.05700
C 	C 	0.18840 0.98960 0.23880 -0.01500
C 	C 	0.15210 0.91900 0.24180 -0.04700
C 	C 	0.03810 0.90440 0.25640 -0.13900
C 	C 	0.96390 0.96160 0.26480 0.10400
C 	C 	0.91030 0.08910 0.26900 0.38000
C 	C 	0.17040 0.11900 0.24070 0.35900
C 	C 	0.23990 0.86310 0.22670 0.39500
C 	C 	0.98860 0.83070 0.26420 0.46800
C 	C 	0.00040 0.96760 0.73960 -0.15000
C 	C 	0.11520 0.95380 0.75300 -0.05700
C 	C 	0.18840 0.01040 0.76120 -0.01500
C 	C 	0.15210 0.08100 0.75820 -0.04700
C 	C 	0.03810 0.09560 0.74360 -0.13900
C 	C 	0.96390 0.03840 0.73520 0.10400
C 	C 	0.91030 0.91090 0.73100 0.38000
C 	C 	0.17040 0.88100 0.75930 0.35900
C 	C 	0.23990 0.13690 0.77330 0.39500
C 	C 	0.98860 0.16930 0.73580 0.46800
C 	C 	0.50040 0.76040 0.53240 -0.07400
C 	C 	0.61520 0.74700 0.54620 -0.09000
C 	C 	0.68840 0.73880 0.48960 0.02200
C 	C 	0.65210 0.74180 0.41900 -0.08300
C 	C 	0.53810 0.75640 0.40440 -0.05600
C 	C 	0.46390 0.76480 0.46160 0.00000
C 	C 	0.41030 0.76900 0.58910 0.34200
C 	C 	0.67040 0.74070 0.61900 0.37400
C 	C 	0.73990 0.72670 0.36310 0.40900
C 	C 	0.48860 0.76420 0.33070 0.40200
C 	C 	0.50040 0.23960 0.46760 -0.07400
C 	C 	0.61520 0.25300 0.45380 -0.09000
C 	C 	0.68840 0.26120 0.51040 0.02200
C 	C 	0.65210 0.25820 0.58100 -0.08300
C 	C 	0.53810 0.24360 0.59560 -0.05600
C 	C 	0.46390 0.23520 0.53840 0.00000
C 	C 	0.41030 0.23100 0.41090 0.34200
C 	C 	0.67040 0.25930 0.38100 0.37400
C 	C 	0.73990 0.27330 0.63690 0.40900
C 	C 	0.48860 0.23580 0.66930 0.40200
C 	C 	0.00040 0.53240 0.23960 -0.15000
C 	C 	0.11520 0.54620 0.25300 -0.05700
C 	C 	0.18840 0.48960 0.26120 -0.01500
C 	C 	0.15210 0.41900 0.25820 -0.04700
C 	C 	0.03810 0.40440 0.24360 -0.13900
C 	C 	0.96390 0.46160 0.23520 0.10500
C 	C 	0.91030 0.58910 0.23100 0.38100
C 	C 	0.17040 0.61900 0.25930 0.35900
C 	C 	0.23990 0.36310 0.27330 0.39500
C 	C 	0.98860 0.33070 0.23580 0.46800
C 	C 	0.00040 0.46760 0.76040 -0.15000
C 	C 	0.11520 0.45380 0.74700 -0.05700
C 	C 	0.18840 0.51040 0.73880 -0.01500
C 	C 	0.15210 0.58100 0.74180 -0.04700
C 	C 	0.03810 0.59560 0.75640 -0.13900
C 	C 	0.96390 0.53840 0.76480 0.10500
C 	C 	0.91030 0.41090 0.76900 0.38100
C 	C 	0.17040 0.38100 0.74070 0.35900
C 	C 	0.23990 0.63690 0.72670 0.39500
C 	C 	0.98860 0.66930 0.76420 0.46800
O 	O 	0.43910 0.25580 0.84620 -0.55800
O 	O 	0.31600 0.28520 0.92750 -0.31800
O 	O 	0.65030 0.19150 0.83940 -0.50800
O 	O 	0.74770 0.28640 0.86980 -0.43400
O 	O 	0.83750 0.21280 0.11600 -0.50900
O 	O 	0.70940 0.22650 0.20030 -0.47700
O 	O 	0.41590 0.21760 0.18640 -0.47000
O 	O 	0.51540 0.31610 0.20550 -0.46300
O 	O 	0.43910 0.74420 0.15380 -0.55800
O 	O 	0.31600 0.71480 0.07250 -0.31800
O 	O 	0.65030 0.80850 0.16060 -0.50800
O 	O 	0.74770 0.71360 0.13020 -0.43400
O 	O 	0.83750 0.78720 0.88400 -0.50900
O 	O 	0.70940 0.77350 0.79970 -0.47700
O 	O 	0.41590 0.78240 0.81360 -0.47000
O 	O 	0.51540 0.68390 0.79450 -0.46300
O 	O 	0.93910 0.15380 0.25580 -0.55700
O 	O 	0.81600 0.07250 0.28520 -0.32300
O 	O 	0.15030 0.16060 0.19150 -0.50800
O 	O 	0.24770 0.13020 0.28640 -0.43500
O 	O 	0.33750 0.88400 0.21280 -0.51400
O 	O 	0.20940 0.79970 0.22650 -0.47800
O 	O 	0.91590 0.81360 0.21760 -0.48000
O 	O 	0.01540 0.79450 0.31610 -0.49700
O 	O 	0.93910 0.84620 0.74420 -0.55700
O 	O 	0.81600 0.92750 0.71480 -0.32300
O 	O 	0.15030 0.83940 0.80850 -0.50800
O 	O 	0.24770 0.86980 0.71360 -0.43500
O 	O 	0.33750 0.11600 0.78720 -0.51400
O 	O 	0.20940 0.20030 0.77350 -0.47800
O 	O 	0.91590 0.18640 0.78240 -0.48000
O 	O 	0.01540 0.20550 0.68390 -0.49700
O 	O 	0.43910 0.75580 0.65380 -0.55800
O 	O 	0.31600 0.78520 0.57250 -0.31800
O 	O 	0.65030 0.69150 0.66060 -0.50800
O 	O 	0.74770 0.78640 0.63020 -0.43400
O 	O 	0.83750 0.71280 0.38400 -0.50800
O 	O 	0.70940 0.72650 0.29970 -0.47700
O 	O 	0.41590 0.71760 0.31360 -0.47000
O 	O 	0.51540 0.81610 0.29450 -0.46300
O 	O 	0.43910 0.24420 0.34620 -0.55800
O 	O 	0.31600 0.21480 0.42750 -0.31800
O 	O 	0.65030 0.30850 0.33940 -0.50800
O 	O 	0.74770 0.21360 0.36980 -0.43400
O 	O 	0.83750 0.28720 0.61600 -0.50800
O 	O 	0.70940 0.27350 0.70030 -0.47700
O 	O 	0.41590 0.28240 0.68640 -0.47000
O 	O 	0.51540 0.18390 0.70550 -0.46300
O 	O 	0.93910 0.65380 0.24420 -0.55700
O 	O 	0.81600 0.57250 0.21480 -0.32300
O 	O 	0.15030 0.66060 0.30850 -0.50800
O 	O 	0.24770 0.63020 0.21360 -0.43500
O 	O 	0.33750 0.38400 0.28720 -0.51300
O 	O 	0.20940 0.29970 0.27350 -0.47800
O 	O 	0.91590 0.31360 0.28240 -0.48000
O 	O 	0.01540 0.29450 0.18390 -0.49700
O 	O 	0.93910 0.34620 0.75580 -0.55700
O 	O 	0.81600 0.42750 0.78520 -0.32300
O 	O 	0.15030 0.33940 0.69150 -0.50800
O 	O 	0.24770 0.36980 0.78640 -0.43500
O 	O 	0.33750 0.61600 0.71280 -0.51300
O 	O 	0.20940 0.70030 0.72650 -0.47800
O 	O 	0.91590 0.68640 0.71760 -0.48000
O 	O 	0.01540 0.70550 0.81610 -0.49700
