data_crystal

_cell_length_a 10.92500
_cell_length_b 10.94600
_cell_length_c 13.97200
_cell_angle_alpha 95.20000
_cell_angle_beta  99.23000
_cell_angle_gamma 99.89000

_symmetry_space_group_name_	'P 1'
_symmetry_space_group_name_H-M	'P 1'

loop_
_symmetry_equiv_pos_as_xyz
  x,y,z

loop_
_atom_site_label
_atom_site_type_symbol
_atom_site_fract_x
_atom_site_fract_y
_atom_site_fract_z
_atom_site_charge
Zn	Zn	0.34209 0.72268 0.88681 1.21300
Zn	Zn	0.28187 0.68194 0.66984 1.21500
Zn	Zn	0.65791 0.27732 0.11319 1.21300
Zn	Zn	0.71813 0.31806 0.33016 1.21500
H 	H 	0.27170 0.06550 0.63850 0.05100
H 	H 	0.26000 0.27920 0.63510 0.04100
H 	H 	0.36000 0.34010 0.92490 0.04800
H 	H 	0.36420 0.12950 0.92950 0.05800
H 	H 	0.86410 0.64650 0.62490 0.05300
H 	H 	0.65940 0.67230 0.63710 0.04500
H 	H 	0.75810 0.74310 0.92600 0.04700
H 	H 	0.96530 0.73170 0.91420 0.05000
H 	H 	0.36400 0.90600 0.06540 0.05600
H 	H 	0.27540 0.53640 0.18700 0.07400
H 	H 	0.29890 0.54600 0.02760 0.00500
H 	H 	0.48020 0.76060 0.38200 0.05300
H 	H 	0.46700 0.74690 0.54470 0.01600
H 	H 	0.10530 0.64410 0.47670 0.05300
H 	H 	0.43210 0.98200 0.29120 0.22900
H 	H 	0.34170 0.02460 0.20720 0.22700
H 	H 	0.28620 0.95850 0.29000 0.22300
H 	H 	0.06680 0.60410 0.22720 0.25100
H 	H 	0.99490 0.59480 0.31560 0.25200
H 	H 	0.02690 0.72300 0.27480 0.24600
H 	H 	0.72830 0.93450 0.36150 0.05200
H 	H 	0.74000 0.72080 0.36490 0.04200
H 	H 	0.64000 0.65990 0.07510 0.04800
H 	H 	0.63580 0.87050 0.07050 0.05800
H 	H 	0.13590 0.35350 0.37510 0.05300
H 	H 	0.34060 0.32770 0.36290 0.04500
H 	H 	0.24190 0.25690 0.07400 0.04700
H 	H 	0.03470 0.26830 0.08580 0.05000
H 	H 	0.63600 0.09400 0.93460 0.05600
H 	H 	0.72460 0.46360 0.81300 0.07400
H 	H 	0.70110 0.45400 0.97240 0.00500
H 	H 	0.51980 0.23940 0.61800 0.05300
H 	H 	0.53300 0.25310 0.45530 0.01600
H 	H 	0.89470 0.35590 0.52330 0.05300
H 	H 	0.56790 0.01800 0.70880 0.22900
H 	H 	0.65830 0.97540 0.79280 0.22700
H 	H 	0.71380 0.04150 0.71000 0.22300
H 	H 	0.93320 0.39590 0.77280 0.25100
H 	H 	0.00510 0.40520 0.68440 0.25200
H 	H 	0.97310 0.27700 0.72520 0.24600
C 	C 	0.32510 0.93940 0.78780 0.34300
C 	C 	0.31900 0.07800 0.78570 -0.05600
C 	C 	0.28780 0.11980 0.69620 -0.04200
C 	C 	0.28110 0.24940 0.69460 -0.01000
C 	C 	0.30480 0.32900 0.77810 -0.09100
C 	C 	0.33970 0.28540 0.86740 -0.00800
C 	C 	0.34400 0.15900 0.86970 -0.03500
C 	C 	0.30070 0.46560 0.77280 0.37800
C 	C 	0.07100 0.68540 0.75940 0.36000
C 	C 	0.93570 0.69170 0.76890 -0.07200
C 	C 	0.84420 0.66960 0.68540 -0.03200
C 	C 	0.72030 0.68290 0.69340 -0.01400
C 	C 	0.68740 0.71100 0.78210 -0.09000
C 	C 	0.77940 0.72680 0.86490 -0.01900
C 	C 	0.90380 0.71870 0.85800 -0.02800
C 	C 	0.55300 0.71700 0.78990 0.36400
C 	C 	0.34720 0.83050 0.09090 -0.07500
C 	C 	0.33540 0.83290 0.18890 0.15500
C 	C 	0.30790 0.72110 0.22600 -0.01700
C 	C 	0.29430 0.61360 0.16460 -0.10100
C 	C 	0.30880 0.62040 0.06830 0.06000
C 	C 	0.29390 0.71470 0.32940 -0.06500
C 	C 	0.40170 0.73760 0.39970 -0.05500
C 	C 	0.39410 0.72670 0.49740 0.01800
C 	C 	0.18240 0.66730 0.45700 -0.08900
C 	C 	0.18080 0.67760 0.35750 0.19800
C 	C 	0.35030 0.96180 0.25020 -0.64700
C 	C 	0.05590 0.64710 0.28730 -0.72300
C 	C 	0.67490 0.06060 0.21220 0.34300
C 	C 	0.68100 0.92200 0.21430 -0.05600
C 	C 	0.71220 0.88020 0.30380 -0.04200
C 	C 	0.71890 0.75060 0.30540 -0.01000
C 	C 	0.69520 0.67100 0.22190 -0.09100
C 	C 	0.66030 0.71460 0.13260 -0.00800
C 	C 	0.65600 0.84100 0.13030 -0.03500
C 	C 	0.69930 0.53440 0.22720 0.37800
C 	C 	0.92900 0.31460 0.24060 0.36000
C 	C 	0.06430 0.30830 0.23110 -0.07200
C 	C 	0.15580 0.33040 0.31460 -0.03200
C 	C 	0.27970 0.31710 0.30660 -0.01400
C 	C 	0.31260 0.28900 0.21790 -0.09000
C 	C 	0.22060 0.27320 0.13510 -0.01900
C 	C 	0.09620 0.28130 0.14200 -0.02800
C 	C 	0.44700 0.28300 0.21010 0.36400
C 	C 	0.65280 0.16950 0.90910 -0.07500
C 	C 	0.66460 0.16710 0.81110 0.15500
C 	C 	0.69210 0.27890 0.77400 -0.01700
C 	C 	0.70570 0.38640 0.83540 -0.10100
C 	C 	0.69120 0.37960 0.93170 0.06000
C 	C 	0.70610 0.28530 0.67060 -0.06500
C 	C 	0.59830 0.26240 0.60030 -0.05500
C 	C 	0.60590 0.27330 0.50260 0.01800
C 	C 	0.81760 0.33270 0.54300 -0.08900
C 	C 	0.81920 0.32240 0.64250 0.19800
C 	C 	0.64970 0.03820 0.74980 -0.64700
C 	C 	0.94410 0.35290 0.71270 -0.72300
N 	N 	0.33510 0.72390 0.03180 -0.22400
N 	N 	0.28320 0.68760 0.52350 -0.21000
N 	N 	0.66490 0.27610 0.96820 -0.22400
N 	N 	0.71680 0.31240 0.47650 -0.21000
O 	O 	0.30210 0.86940 0.70640 -0.46000
O 	O 	0.35220 0.90640 0.87170 -0.44800
O 	O 	0.32500 0.53560 0.85380 -0.46600
O 	O 	0.27030 0.50160 0.69170 -0.47200
O 	O 	0.09640 0.67120 0.67490 -0.45300
O 	O 	0.14810 0.70020 0.83850 -0.46500
O 	O 	0.47460 0.70060 0.71120 -0.46800
O 	O 	0.52870 0.73760 0.87440 -0.44800
O 	O 	0.69790 0.13060 0.29360 -0.46000
O 	O 	0.64780 0.09360 0.12830 -0.44800
O 	O 	0.67500 0.46440 0.14620 -0.46600
O 	O 	0.72970 0.49840 0.30830 -0.47200
O 	O 	0.90360 0.32880 0.32510 -0.45300
O 	O 	0.85190 0.29980 0.16150 -0.46500
O 	O 	0.52540 0.29940 0.28880 -0.46800
O 	O 	0.47130 0.26240 0.12560 -0.44800
