data_crystal

_cell_length_a 7.29200
_cell_length_b 18.82000
_cell_length_c 20.51860
_cell_angle_alpha 106.98300
_cell_angle_beta  90.00000
_cell_angle_gamma 90.00000

_symmetry_space_group_name_	'P 1'
_symmetry_space_group_name_H-M	'P 1'

loop_
_symmetry_equiv_pos_as_xyz
  x,y,z

loop_
_atom_site_label
_atom_site_type_symbol
_atom_site_fract_x
_atom_site_fract_y
_atom_site_fract_z
_atom_site_charge
Zn	Zn	0.64621 0.52765 0.97776 1.21100
Zn	Zn	0.64621 0.97235 0.52224 1.21200
Zn	Zn	0.35379 0.47235 0.02224 1.21100
Zn	Zn	0.35379 0.02765 0.47776 1.21200
H 	H 	0.96820 0.58780 0.16270 -0.00700
H 	H 	0.09280 0.60870 0.27140 0.17400
H 	H 	0.62500 0.54150 0.33860 0.26600
H 	H 	0.49710 0.52420 0.23060 0.03700
H 	H 	0.86410 0.71900 0.38170 0.17300
H 	H 	0.00070 0.83440 0.41860 -0.01200
H 	H 	0.44340 0.74460 0.47590 0.03700
H 	H 	0.30290 0.62940 0.44480 0.27500
H 	H 	0.96820 0.91220 0.33730 -0.00500
H 	H 	0.09280 0.89130 0.22860 0.17000
H 	H 	0.62500 0.95850 0.16140 0.26400
H 	H 	0.49710 0.97580 0.26940 0.03800
H 	H 	0.86410 0.78100 0.11830 0.16900
H 	H 	0.00070 0.66560 0.08140 -0.00900
H 	H 	0.44340 0.75540 0.02410 0.03900
H 	H 	0.30290 0.87060 0.05520 0.27200
H 	H 	0.03180 0.41220 0.83730 -0.00700
H 	H 	0.90720 0.39130 0.72860 0.17400
H 	H 	0.37500 0.45850 0.66140 0.26600
H 	H 	0.50290 0.47580 0.76940 0.03700
H 	H 	0.13590 0.28100 0.61830 0.17300
H 	H 	0.99930 0.16560 0.58140 -0.01200
H 	H 	0.55660 0.25540 0.52410 0.03700
H 	H 	0.69710 0.37060 0.55520 0.27500
H 	H 	0.03180 0.08780 0.66270 -0.00500
H 	H 	0.90720 0.10870 0.77140 0.17000
H 	H 	0.37500 0.04150 0.83860 0.26400
H 	H 	0.50290 0.02420 0.73060 0.03800
H 	H 	0.13590 0.21900 0.88170 0.16900
H 	H 	0.99930 0.33440 0.91860 -0.00900
H 	H 	0.55660 0.24460 0.97590 0.03900
H 	H 	0.69710 0.12940 0.94480 0.27200
C 	C 	0.63840 0.53710 0.11620 0.44400
C 	C 	0.71950 0.55410 0.18690 -0.20700
C 	C 	0.89930 0.57900 0.19770 0.19600
C 	C 	0.97390 0.59050 0.26290 -0.29500
C 	C 	0.87480 0.57550 0.31530 0.38700
C 	C 	0.69390 0.55080 0.30380 -0.29400
C 	C 	0.61760 0.54040 0.23880 0.21200
C 	C 	0.97260 0.58430 0.38400 -0.51600
C 	C 	0.84400 0.58290 0.44250 0.97700
C 	C 	0.10780 0.51900 0.37210 0.96200
C 	C 	0.07190 0.66070 0.40760 0.38200
C 	C 	0.98080 0.72370 0.40080 -0.29600
C 	C 	0.06360 0.79280 0.42250 0.20000
C 	C 	0.23750 0.80100 0.44960 -0.21400
C 	C 	0.32610 0.73960 0.45730 0.22800
C 	C 	0.24270 0.67010 0.43760 -0.30600
C 	C 	0.32760 0.87660 0.47050 0.42900
C 	C 	0.63840 0.96290 0.38380 0.44300
C 	C 	0.71950 0.94590 0.31310 -0.20400
C 	C 	0.89930 0.92100 0.30230 0.19200
C 	C 	0.97390 0.90950 0.23710 -0.28700
C 	C 	0.87480 0.92450 0.18470 0.38200
C 	C 	0.69390 0.94920 0.19620 -0.29000
C 	C 	0.61760 0.95960 0.26120 0.20900
C 	C 	0.97260 0.91570 0.11600 -0.50700
C 	C 	0.84400 0.91710 0.05750 0.97400
C 	C 	0.10780 0.98100 0.12790 0.95500
C 	C 	0.07190 0.83930 0.09240 0.37300
C 	C 	0.98080 0.77630 0.09920 -0.28600
C 	C 	0.06360 0.70720 0.07750 0.19200
C 	C 	0.23750 0.69900 0.05040 -0.20900
C 	C 	0.32610 0.76040 0.04270 0.22200
C 	C 	0.24270 0.82990 0.06240 -0.30000
C 	C 	0.32760 0.62340 0.02950 0.42700
C 	C 	0.36160 0.46290 0.88380 0.44400
C 	C 	0.28050 0.44590 0.81310 -0.20700
C 	C 	0.10070 0.42100 0.80230 0.19600
C 	C 	0.02610 0.40950 0.73710 -0.29500
C 	C 	0.12520 0.42450 0.68470 0.38700
C 	C 	0.30610 0.44920 0.69620 -0.29400
C 	C 	0.38240 0.45960 0.76120 0.21200
C 	C 	0.02740 0.41570 0.61600 -0.51600
C 	C 	0.15600 0.41710 0.55750 0.97700
C 	C 	0.89220 0.48100 0.62790 0.96200
C 	C 	0.92810 0.33930 0.59240 0.38200
C 	C 	0.01920 0.27630 0.59920 -0.29600
C 	C 	0.93640 0.20720 0.57750 0.20000
C 	C 	0.76250 0.19900 0.55040 -0.21400
C 	C 	0.67390 0.26040 0.54270 0.22800
C 	C 	0.75730 0.32990 0.56240 -0.30600
C 	C 	0.67240 0.12340 0.52950 0.42900
C 	C 	0.36160 0.03710 0.61620 0.44300
C 	C 	0.28050 0.05410 0.68690 -0.20400
C 	C 	0.10070 0.07900 0.69770 0.19200
C 	C 	0.02610 0.09050 0.76290 -0.28700
C 	C 	0.12520 0.07550 0.81530 0.38200
C 	C 	0.30610 0.05080 0.80380 -0.29000
C 	C 	0.38240 0.04040 0.73880 0.20900
C 	C 	0.02740 0.08430 0.88400 -0.50700
C 	C 	0.15600 0.08290 0.94250 0.97400
C 	C 	0.89220 0.01900 0.87210 0.95500
C 	C 	0.92810 0.16070 0.90760 0.37300
C 	C 	0.01920 0.22370 0.90080 -0.28600
C 	C 	0.93640 0.29280 0.92250 0.19200
C 	C 	0.76250 0.30100 0.94960 -0.20900
C 	C 	0.67390 0.23960 0.95730 0.22200
C 	C 	0.75730 0.17010 0.93760 -0.30000
C 	C 	0.67240 0.37660 0.97050 0.42700
O 	O 	0.72810 0.55410 0.07200 -0.49600
O 	O 	0.48390 0.50570 0.10870 -0.47600
O 	O 	0.48470 0.88150 0.49680 -0.45600
O 	O 	0.24250 0.92950 0.45810 -0.48100
O 	O 	0.72810 0.94590 0.42800 -0.49600
O 	O 	0.48390 0.99430 0.39130 -0.47700
O 	O 	0.48470 0.61850 0.00320 -0.45500
O 	O 	0.24250 0.57050 0.04190 -0.48000
O 	O 	0.27190 0.44590 0.92800 -0.49600
O 	O 	0.51610 0.49430 0.89130 -0.47600
O 	O 	0.51530 0.11850 0.50320 -0.45600
O 	O 	0.75750 0.07050 0.54190 -0.48100
O 	O 	0.27190 0.05410 0.57200 -0.49600
O 	O 	0.51610 0.00570 0.60870 -0.47700
O 	O 	0.51530 0.38150 0.99680 -0.45500
O 	O 	0.75750 0.42950 0.95810 -0.48000
F 	F 	0.76730 0.51530 0.43300 -0.38200
F 	F 	0.92780 0.60050 0.50280 -0.39000
F 	F 	0.70570 0.63090 0.44840 -0.48800
F 	F 	0.18200 0.51130 0.42920 -0.38200
F 	F 	0.24830 0.52410 0.33120 -0.48900
F 	F 	0.02510 0.45410 0.34080 -0.40400
F 	F 	0.76730 0.98470 0.06700 -0.38200
F 	F 	0.92780 0.89950 0.99720 -0.38700
F 	F 	0.70570 0.86910 0.05160 -0.48800
F 	F 	0.18200 0.98870 0.07080 -0.38200
F 	F 	0.24830 0.97590 0.16880 -0.48800
F 	F 	0.02510 0.04590 0.15920 -0.40000
F 	F 	0.23270 0.48470 0.56700 -0.38200
F 	F 	0.07220 0.39950 0.49720 -0.39000
F 	F 	0.29430 0.36910 0.55160 -0.48800
F 	F 	0.81800 0.48870 0.57080 -0.38200
F 	F 	0.75170 0.47590 0.66880 -0.48900
F 	F 	0.97490 0.54590 0.65920 -0.40400
F 	F 	0.23270 0.01530 0.93300 -0.38200
F 	F 	0.07220 0.10050 0.00280 -0.38700
F 	F 	0.29430 0.13090 0.94840 -0.48800
F 	F 	0.81800 0.01130 0.92920 -0.38200
F 	F 	0.75170 0.02410 0.83120 -0.48800
F 	F 	0.97490 0.95410 0.84080 -0.40000
