data_crystal

_cell_length_a 11.08450
_cell_length_b 11.08450
_cell_length_c 11.08450
_cell_angle_alpha 90.00000
_cell_angle_beta  90.00000
_cell_angle_gamma 90.00000

_symmetry_space_group_name_	'P 1'
_symmetry_space_group_name_H-M	'P 1'

loop_
_symmetry_equiv_pos_as_xyz
  x,y,z

loop_
_atom_site_label
_atom_site_type_symbol
_atom_site_fract_x
_atom_site_fract_y
_atom_site_fract_z
_atom_site_charge
Na	Na	0.15210 0.34790 0.65210 0.60800
Na	Na	0.34790 0.65210 0.15210 0.60800
Na	Na	0.84790 0.84790 0.84790 0.60700
Na	Na	0.65210 0.15210 0.34790 0.60700
H 	H 	0.42880 0.34380 0.02430 0.35700
H 	H 	0.35090 0.25140 0.95090 0.33600
H 	H 	0.44470 0.33350 0.88420 0.33100
H 	H 	0.07120 0.65620 0.52430 0.35400
H 	H 	0.14910 0.74860 0.45090 0.33400
H 	H 	0.05530 0.66650 0.38420 0.33000
H 	H 	0.57120 0.84380 0.47570 0.35400
H 	H 	0.64910 0.75140 0.54910 0.33500
H 	H 	0.55530 0.83350 0.61580 0.33000
H 	H 	0.92880 0.15620 0.97570 0.35200
H 	H 	0.85090 0.24860 0.04910 0.33300
H 	H 	0.94470 0.16650 0.11580 0.32800
H 	H 	0.02430 0.42880 0.34380 0.35700
H 	H 	0.95090 0.35090 0.25140 0.33600
H 	H 	0.88420 0.44470 0.33350 0.33100
H 	H 	0.52430 0.07120 0.65620 0.35400
H 	H 	0.45090 0.14910 0.74860 0.33400
H 	H 	0.38420 0.05530 0.66650 0.33000
H 	H 	0.47570 0.57120 0.84380 0.35400
H 	H 	0.54910 0.64910 0.75140 0.33500
H 	H 	0.61580 0.55530 0.83350 0.33000
H 	H 	0.97570 0.92880 0.15620 0.35200
H 	H 	0.04910 0.85090 0.24860 0.33300
H 	H 	0.11580 0.94470 0.16650 0.32800
H 	H 	0.34380 0.02430 0.42880 0.35700
H 	H 	0.25140 0.95090 0.35090 0.33600
H 	H 	0.33350 0.88420 0.44470 0.33100
H 	H 	0.65620 0.52430 0.07120 0.35400
H 	H 	0.74860 0.45090 0.14910 0.33400
H 	H 	0.66650 0.38420 0.05530 0.33000
H 	H 	0.84380 0.47570 0.57120 0.35400
H 	H 	0.75140 0.54910 0.64910 0.33500
H 	H 	0.83350 0.61580 0.55530 0.33000
H 	H 	0.15620 0.97570 0.92880 0.35200
H 	H 	0.24860 0.04910 0.85090 0.33300
H 	H 	0.16650 0.11580 0.94470 0.32800
C 	C 	0.29190 0.42480 0.93150 0.58200
C 	C 	0.38780 0.32970 0.94930 -1.09000
C 	C 	0.20810 0.57520 0.43150 0.58200
C 	C 	0.11220 0.67030 0.44930 -1.08500
C 	C 	0.70810 0.92480 0.56850 0.58300
C 	C 	0.61220 0.82970 0.55070 -1.08500
C 	C 	0.79190 0.07520 0.06850 0.58000
C 	C 	0.88780 0.17030 0.05070 -1.08100
C 	C 	0.93150 0.29190 0.42480 0.58200
C 	C 	0.94930 0.38780 0.32970 -1.09000
C 	C 	0.43150 0.20810 0.57520 0.58200
C 	C 	0.44930 0.11220 0.67030 -1.08500
C 	C 	0.56850 0.70810 0.92480 0.58300
C 	C 	0.55070 0.61220 0.82970 -1.08500
C 	C 	0.06850 0.79190 0.07520 0.58000
C 	C 	0.05070 0.88780 0.17030 -1.08100
C 	C 	0.42480 0.93150 0.29190 0.58200
C 	C 	0.32970 0.94930 0.38780 -1.09000
C 	C 	0.57520 0.43150 0.20810 0.58200
C 	C 	0.67030 0.44930 0.11220 -1.08500
C 	C 	0.92480 0.56850 0.70810 0.58300
C 	C 	0.82970 0.55070 0.61220 -1.08500
C 	C 	0.07520 0.06850 0.79190 0.58000
C 	C 	0.17030 0.05070 0.88780 -1.08100
O 	O 	0.22790 0.42230 0.83720 -0.36300
O 	O 	0.27590 0.50390 0.01230 -0.35500
O 	O 	0.27210 0.57770 0.33720 -0.36200
O 	O 	0.22410 0.49610 0.51230 -0.35600
O 	O 	0.77210 0.92230 0.66280 -0.36200
O 	O 	0.72410 0.00390 0.48770 -0.35600
O 	O 	0.72790 0.07770 0.16280 -0.36200
O 	O 	0.77590 0.99610 0.98770 -0.35400
O 	O 	0.83720 0.22790 0.42230 -0.36300
O 	O 	0.01230 0.27590 0.50390 -0.35500
O 	O 	0.33720 0.27210 0.57770 -0.36200
O 	O 	0.51230 0.22410 0.49610 -0.35600
O 	O 	0.66280 0.77210 0.92230 -0.36200
O 	O 	0.48770 0.72410 0.00390 -0.35600
O 	O 	0.16280 0.72790 0.07770 -0.36200
O 	O 	0.98770 0.77590 0.99610 -0.35400
O 	O 	0.42230 0.83720 0.22790 -0.36300
O 	O 	0.50390 0.01230 0.27590 -0.35500
O 	O 	0.57770 0.33720 0.27210 -0.36200
O 	O 	0.49610 0.51230 0.22410 -0.35600
O 	O 	0.92230 0.66280 0.77210 -0.36200
O 	O 	0.00390 0.48770 0.72410 -0.35600
O 	O 	0.07770 0.16280 0.72790 -0.36200
O 	O 	0.99610 0.98770 0.77590 -0.35400
