data_crystal

_cell_length_a 7.17403
_cell_length_b 10.17600
_cell_length_c 11.94100
_cell_angle_alpha 90.00000
_cell_angle_beta  90.14210
_cell_angle_gamma 91.37260

_symmetry_space_group_name_	'P 1'
_symmetry_space_group_name_H-M	'P 1'

loop_
_symmetry_equiv_pos_as_xyz
  x,y,z

loop_
_atom_site_label
_atom_site_type_symbol
_atom_site_fract_x
_atom_site_fract_y
_atom_site_fract_z
_atom_site_charge
Ga	Ga	0.49483 0.49153 0.49702 2.07700
Ga	Ga	0.17146 0.66734 0.62228 2.06200
Ga	Ga	0.81968 0.34173 0.63644 2.07100
Ga	Ga	0.16890 0.65410 0.36508 2.06200
Ga	Ga	0.81649 0.32681 0.36459 2.06700
Ga	Ga	0.49916 0.99846 0.99702 2.05200
Ga	Ga	0.82252 0.82265 0.12325 2.06000
Ga	Ga	0.17431 0.14826 0.13548 2.06600
Ga	Ga	0.82509 0.83589 0.86606 2.06300
Ga	Ga	0.17750 0.16318 0.86363 2.06800
P 	P 	0.24683 0.38628 0.69656 0.63400
P 	P 	0.24353 0.36964 0.30457 0.65100
P 	P 	0.74916 0.60704 0.30046 0.67600
P 	P 	0.75050 0.62512 0.68637 0.66300
P 	P 	0.74715 0.10371 0.19730 0.73500
P 	P 	0.75046 0.12035 0.80533 0.75600
P 	P 	0.24483 0.88294 0.79970 0.57100
P 	P 	0.24349 0.86487 0.18561 0.56300
O 	O 	0.25852 0.58700 0.49690 -1.24100
O 	O 	0.73267 0.38708 0.49901 -1.20500
O 	O 	0.41543 0.37732 0.62094 -0.60600
O 	O 	0.58277 0.61098 0.37839 -0.62300
O 	O 	0.07816 0.31860 0.63814 -0.70400
O 	O 	0.41082 0.36521 0.38293 -0.61000
O 	O 	0.07675 0.30200 0.36303 -0.69400
O 	O 	0.28377 0.31389 0.80844 -0.62600
O 	O 	0.91984 0.66940 0.35959 -0.76600
O 	O 	0.28517 0.29279 0.19745 -0.64700
O 	O 	0.20060 0.51031 0.26822 -0.64300
O 	O 	0.59038 0.62461 0.60370 -0.61900
O 	O 	0.78758 0.48496 0.72819 -0.66700
O 	O 	0.92545 0.68812 0.62990 -0.76300
O 	O 	0.70902 0.68330 0.19438 -0.65000
O 	O 	0.70020 0.70557 0.78966 -0.63600
O 	O 	0.21162 0.53055 0.72793 -0.61700
O 	O 	0.78738 0.46456 0.26349 -0.65600
O 	O 	0.73547 0.90299 0.99762 -1.26300
O 	O 	0.26132 0.10291 0.99831 -1.13700
O 	O 	0.57856 0.11267 0.12118 -0.59800
O 	O 	0.41122 0.87901 0.87813 -0.63400
O 	O 	0.91583 0.17139 0.13939 -0.71000
O 	O 	0.58317 0.12478 0.88319 -0.57500
O 	O 	0.91723 0.18799 0.86429 -0.68500
O 	O 	0.71022 0.17611 0.30908 -0.61600
O 	O 	0.07415 0.82059 0.85833 -0.75800
O 	O 	0.70882 0.19720 0.69808 -0.62800
O 	O 	0.79339 0.97968 0.76910 -0.75600
O 	O 	0.40361 0.86538 0.10342 -0.64700
O 	O 	0.20641 0.00503 0.22733 -0.56400
O 	O 	0.06854 0.80187 0.12862 -0.77800
O 	O 	0.28497 0.80669 0.69374 -0.65500
O 	O 	0.29379 0.78442 0.28906 -0.65200
O 	O 	0.78237 0.95944 0.22879 -0.73100
O 	O 	0.20661 0.02543 0.76263 -0.53700
