data_crystal

_cell_length_a 10.19640
_cell_length_b 17.68600
_cell_length_c 17.68600
_cell_angle_alpha 120.00000
_cell_angle_beta  90.00000
_cell_angle_gamma 90.00000

_symmetry_space_group_name_	'P 1'
_symmetry_space_group_name_H-M	'P 1'

loop_
_symmetry_equiv_pos_as_xyz
  x,y,z

loop_
_atom_site_label
_atom_site_type_symbol
_atom_site_fract_x
_atom_site_fract_y
_atom_site_fract_z
_atom_site_charge
Zn	Zn	0.98621 0.45883 0.53331 1.16200
Zn	Zn	0.65288 0.07448 0.54117 1.16800
Zn	Zn	0.31954 0.46669 0.92552 1.17000
Zn	Zn	0.48621 0.54117 0.46669 1.17000
Zn	Zn	0.15288 0.92552 0.45883 1.17500
Zn	Zn	0.81954 0.53331 0.07448 1.16500
H 	H 	0.20460 0.32800 0.43600 -0.04800
H 	H 	0.25860 0.18530 0.39190 0.08800
H 	H 	0.92170 0.16270 0.49090 0.08100
H 	H 	0.87450 0.30640 0.53240 -0.02700
H 	H 	0.07170 0.02430 0.37260 0.06400
H 	H 	0.22040 0.05110 0.39010 0.05400
H 	H 	0.25420 0.15930 0.54960 0.04400
H 	H 	0.11910 0.18970 0.66470 0.14200
H 	H 	0.25490 0.16800 0.69090 0.13400
H 	H 	0.14290 0.09790 0.65550 0.11500
H 	H 	0.05020 0.07440 0.51960 0.11400
H 	H 	0.87127 0.10800 0.67200 -0.05000
H 	H 	0.92527 0.20660 0.81470 0.07300
H 	H 	0.58837 0.32820 0.83730 0.07000
H 	H 	0.54117 0.22600 0.69360 -0.02600
H 	H 	0.73837 0.34830 0.97570 0.05000
H 	H 	0.88707 0.33900 0.94890 0.04100
H 	H 	0.92087 0.39030 0.84070 0.05000
H 	H 	0.78577 0.47500 0.81030 0.11400
H 	H 	0.92157 0.52290 0.83200 0.10500
H 	H 	0.80957 0.55760 0.90210 0.08700
H 	H 	0.71687 0.44520 0.92560 0.10400
H 	H 	0.53793 0.56400 0.89200 -0.04400
H 	H 	0.59193 0.60810 0.79340 0.07900
H 	H 	0.25503 0.50910 0.67180 0.07400
H 	H 	0.20783 0.46760 0.77400 -0.02200
H 	H 	0.40503 0.62740 0.65170 0.05300
H 	H 	0.55373 0.60990 0.66100 0.04800
H 	H 	0.58753 0.45040 0.60970 0.04600
H 	H 	0.45243 0.33530 0.52500 0.12700
H 	H 	0.58823 0.30910 0.47710 0.12300
H 	H 	0.47623 0.34450 0.44240 0.10100
H 	H 	0.38353 0.48040 0.55480 0.10400
H 	H 	0.70460 0.67200 0.56400 -0.04300
H 	H 	0.75860 0.81470 0.60810 0.07800
H 	H 	0.42170 0.83730 0.50910 0.07100
H 	H 	0.37450 0.69360 0.46760 -0.02400
H 	H 	0.57170 0.97570 0.62740 0.05100
H 	H 	0.72040 0.94890 0.60990 0.04600
H 	H 	0.75420 0.84070 0.45040 0.04700
H 	H 	0.61910 0.81030 0.33530 0.12300
H 	H 	0.75490 0.83200 0.30910 0.11600
H 	H 	0.64290 0.90210 0.34450 0.09600
H 	H 	0.55020 0.92560 0.48040 0.10400
H 	H 	0.37127 0.89200 0.32800 -0.04400
H 	H 	0.42527 0.79340 0.18530 0.07900
H 	H 	0.08837 0.67180 0.16270 0.07500
H 	H 	0.04117 0.77400 0.30640 -0.01700
H 	H 	0.23837 0.65170 0.02430 0.05300
H 	H 	0.38707 0.66100 0.05110 0.04800
H 	H 	0.42087 0.60970 0.15930 0.04500
H 	H 	0.28577 0.52500 0.18970 0.13100
H 	H 	0.42157 0.47710 0.16800 0.12600
H 	H 	0.30957 0.44240 0.09790 0.10400
H 	H 	0.21687 0.55480 0.07440 0.10500
H 	H 	0.03793 0.43600 0.10800 0.02700
H 	H 	0.09193 0.39190 0.20660 0.03100
H 	H 	0.75503 0.49090 0.32820 0.05100
H 	H 	0.70783 0.53240 0.22600 -0.01400
H 	H 	0.90503 0.37260 0.34830 0.04900
H 	H 	0.05373 0.39010 0.33900 0.06900
H 	H 	0.08753 0.54960 0.39030 0.07500
H 	H 	0.95243 0.66470 0.47500 0.02800
H 	H 	0.08823 0.69090 0.52290 0.04900
H 	H 	0.97623 0.65550 0.55760 0.00300
H 	H 	0.88353 0.51960 0.44520 0.10300
C 	C 	0.14670 0.29500 0.44840 0.13200
C 	C 	0.18060 0.20880 0.42180 -0.23500
C 	C 	0.09690 0.15870 0.44040 0.19000
C 	C 	0.98230 0.19540 0.48000 -0.24200
C 	C 	0.95370 0.28220 0.50480 0.06100
C 	C 	0.13330 0.06490 0.41570 -0.18200
C 	C 	0.23240 0.10990 0.55770 -0.04500
C 	C 	0.35660 0.05490 0.54360 0.32500
C 	C 	0.18270 0.14460 0.65080 -0.41100
C 	C 	0.81337 0.15340 0.70500 0.11300
C 	C 	0.84727 0.21300 0.79120 -0.21300
C 	C 	0.76357 0.28170 0.84130 0.13800
C 	C 	0.64897 0.28460 0.80460 -0.18900
C 	C 	0.62037 0.22260 0.71780 0.06900
C 	C 	0.79997 0.35080 0.93510 -0.15800
C 	C 	0.89907 0.44780 0.89010 -0.09100
C 	C 	0.02327 0.48870 0.94510 0.35800
C 	C 	0.84937 0.50620 0.85540 -0.34800
C 	C 	0.48003 0.55160 0.84660 0.11600
C 	C 	0.51393 0.57820 0.78700 -0.21300
C 	C 	0.43023 0.55960 0.71830 0.14200
C 	C 	0.31563 0.52000 0.71540 -0.18900
C 	C 	0.28703 0.49520 0.77740 0.07100
C 	C 	0.46663 0.58430 0.64920 -0.16100
C 	C 	0.56573 0.44230 0.55220 -0.05600
C 	C 	0.68993 0.45640 0.51130 0.33000
C 	C 	0.51603 0.34920 0.49380 -0.38500
C 	C 	0.64670 0.70500 0.55160 0.11500
C 	C 	0.68060 0.79120 0.57820 -0.21100
C 	C 	0.59690 0.84130 0.55960 0.14000
C 	C 	0.48230 0.80460 0.52000 -0.18800
C 	C 	0.45370 0.71780 0.49520 0.07100
C 	C 	0.63330 0.93510 0.58430 -0.15900
C 	C 	0.73240 0.89010 0.44230 -0.06300
C 	C 	0.85660 0.94510 0.45640 0.33500
C 	C 	0.68270 0.85540 0.34920 -0.37300
C 	C 	0.31337 0.84660 0.29500 0.11600
C 	C 	0.34727 0.78700 0.20880 -0.21200
C 	C 	0.26357 0.71830 0.15870 0.14300
C 	C 	0.14897 0.71540 0.19540 -0.18800
C 	C 	0.12037 0.77740 0.28220 0.07200
C 	C 	0.29997 0.64920 0.06490 -0.16100
C 	C 	0.39907 0.55220 0.10990 -0.05300
C 	C 	0.52327 0.51130 0.05490 0.32700
C 	C 	0.34937 0.49380 0.14460 -0.39200
C 	C 	0.98003 0.44840 0.15340 -0.04000
C 	C 	0.01393 0.42180 0.21300 -0.05400
C 	C 	0.93023 0.44040 0.28170 0.05200
C 	C 	0.81563 0.48000 0.28460 -0.13200
C 	C 	0.78703 0.50480 0.22260 0.03100
C 	C 	0.96663 0.41570 0.35080 -0.17300
C 	C 	0.06573 0.55770 0.44780 -0.12400
C 	C 	0.18993 0.54360 0.48870 0.35600
C 	C 	0.01603 0.65080 0.50620 -0.11000
N 	N 	0.13000 0.05600 0.49380 -0.26100
N 	N 	0.03930 0.33150 0.48930 -0.27200
N 	N 	0.79667 0.43780 0.94400 -0.26100
N 	N 	0.70597 0.15780 0.66850 -0.28600
N 	N 	0.46333 0.50620 0.56220 -0.26300
N 	N 	0.37263 0.51070 0.84220 -0.28500
N 	N 	0.63000 0.94400 0.50620 -0.26200
N 	N 	0.53930 0.66850 0.51070 -0.28500
N 	N 	0.29667 0.56220 0.05600 -0.26300
N 	N 	0.20597 0.84220 0.33150 -0.28300
N 	N 	0.96333 0.49380 0.43780 -0.26300
N 	N 	0.87263 0.48930 0.15780 -0.25500
O 	O 	0.35010 0.97370 0.49710 -0.47500
O 	O 	0.45600 0.09830 0.57990 -0.47200
O 	O 	0.01677 0.52340 0.02630 -0.47300
O 	O 	0.12267 0.48160 0.90170 -0.47300
O 	O 	0.68343 0.50290 0.47660 -0.47700
O 	O 	0.78933 0.42010 0.51840 -0.47700
O 	O 	0.85010 0.02630 0.50290 -0.48900
O 	O 	0.95600 0.90170 0.42010 -0.49000
O 	O 	0.51677 0.47660 0.97370 -0.47600
O 	O 	0.62267 0.51840 0.09830 -0.47500
O 	O 	0.18343 0.49710 0.52340 -0.47700
O 	O 	0.28933 0.57990 0.48160 -0.47800
