data_crystal

_cell_length_a 10.39530
_cell_length_b 17.45420
_cell_length_c 17.45420
_cell_angle_alpha 120.00000
_cell_angle_beta  90.00000
_cell_angle_gamma 90.00000

_symmetry_space_group_name_	'P 1'
_symmetry_space_group_name_H-M	'P 1'

loop_
_symmetry_equiv_pos_as_xyz
  x,y,z

loop_
_atom_site_label
_atom_site_type_symbol
_atom_site_fract_x
_atom_site_fract_y
_atom_site_fract_z
_atom_site_charge
Zn	Zn	0.88459 0.46662 0.92866 1.16500
Zn	Zn	0.55126 0.46204 0.53338 1.17000
Zn	Zn	0.21792 0.07134 0.53796 1.17100
Zn	Zn	0.38459 0.53338 0.07134 1.17000
Zn	Zn	0.05126 0.53796 0.46662 1.17500
Zn	Zn	0.71792 0.92866 0.46204 1.16900
H 	H 	0.78900 0.55340 0.08100 0.07200
H 	H 	0.97070 0.79880 0.17930 0.05300
H 	H 	0.99250 0.62860 0.15770 0.15300
H 	H 	0.92320 0.89640 0.32620 -0.04600
H 	H 	0.77890 0.64450 0.02140 0.04600
H 	H 	0.92560 0.66500 0.04350 0.04400
H 	H 	0.63550 0.67780 0.15950 0.05600
H 	H 	0.59730 0.77680 0.30630 -0.02300
H 	H 	0.83630 0.42340 0.07070 0.32300
H 	H 	0.86650 0.40430 0.14760 0.34400
H 	H 	0.97400 0.39190 0.07940 0.33500
H 	H 	0.02230 0.52070 0.19840 -0.19500
H 	H 	0.87740 0.63330 0.28150 0.36400
H 	H 	0.83520 0.54580 0.27890 0.36000
H 	H 	0.76450 0.57650 0.21960 0.37900
H 	H 	0.45567 0.52760 0.44660 0.06800
H 	H 	0.63737 0.38050 0.20120 0.06200
H 	H 	0.65917 0.52910 0.37140 0.16900
H 	H 	0.58987 0.42980 0.10360 -0.03800
H 	H 	0.44557 0.37690 0.35550 0.04900
H 	H 	0.59227 0.37850 0.33500 0.05100
H 	H 	0.30217 0.48170 0.32220 0.05800
H 	H 	0.26397 0.52950 0.22320 -0.02400
H 	H 	0.50297 0.64730 0.57660 0.36200
H 	H 	0.53317 0.74330 0.59570 0.38500
H 	H 	0.64067 0.68750 0.60810 0.38100
H 	H 	0.68897 0.67770 0.47930 -0.25000
H 	H 	0.54407 0.64820 0.36670 0.40600
H 	H 	0.50187 0.73310 0.45420 0.39900
H 	H 	0.43117 0.64310 0.42350 0.41500
H 	H 	0.12233 0.91900 0.47240 0.07300
H 	H 	0.30403 0.82070 0.61950 0.05900
H 	H 	0.32583 0.84230 0.47090 0.17100
H 	H 	0.25653 0.67380 0.57020 -0.03800
H 	H 	0.11223 0.97860 0.62310 0.05200
H 	H 	0.25893 0.95650 0.62150 0.05000
H 	H 	0.96883 0.84050 0.51830 0.02300
H 	H 	0.93063 0.69370 0.47050 -0.05000
H 	H 	0.16963 0.92930 0.35270 0.37900
H 	H 	0.19983 0.85240 0.25670 0.40300
H 	H 	0.30733 0.92060 0.31250 0.39600
H 	H 	0.35563 0.80160 0.32230 -0.25900
H 	H 	0.21073 0.71850 0.35180 0.42000
H 	H 	0.16853 0.72110 0.26690 0.41800
H 	H 	0.09783 0.78040 0.35690 0.43600
H 	H 	0.28900 0.44660 0.91900 0.06800
H 	H 	0.47070 0.20120 0.82070 0.06200
H 	H 	0.49250 0.37140 0.84230 0.16800
H 	H 	0.42320 0.10360 0.67380 -0.04000
H 	H 	0.27890 0.35550 0.97860 0.05200
H 	H 	0.42560 0.33500 0.95650 0.05300
H 	H 	0.13550 0.32220 0.84050 0.06200
H 	H 	0.09730 0.22320 0.69370 -0.01800
H 	H 	0.33630 0.57660 0.92930 0.36400
H 	H 	0.36650 0.59570 0.85240 0.38800
H 	H 	0.47400 0.60810 0.92060 0.38300
H 	H 	0.52230 0.47930 0.80160 -0.25100
H 	H 	0.37740 0.36670 0.71850 0.40700
H 	H 	0.33520 0.45420 0.72110 0.40200
H 	H 	0.26450 0.42350 0.78040 0.41900
H 	H 	0.95567 0.47240 0.55340 0.05000
H 	H 	0.13737 0.61950 0.79880 0.03400
H 	H 	0.15917 0.47090 0.62860 0.16000
H 	H 	0.08987 0.57020 0.89640 -0.03200
H 	H 	0.94557 0.62310 0.64450 -0.01100
H 	H 	0.09227 0.62150 0.66500 0.01500
H 	H 	0.80217 0.51830 0.67780 0.03200
H 	H 	0.76397 0.47050 0.77680 -0.01100
H 	H 	0.00297 0.35270 0.42340 0.35400
H 	H 	0.03317 0.25670 0.40430 0.37600
H 	H 	0.14067 0.31250 0.39190 0.36700
H 	H 	0.18897 0.32230 0.52070 -0.22700
H 	H 	0.04407 0.35180 0.63330 0.36000
H 	H 	0.00187 0.26690 0.54580 0.35700
H 	H 	0.93117 0.35690 0.57650 0.34500
H 	H 	0.62233 0.08100 0.52760 0.06800
H 	H 	0.80403 0.17930 0.38050 0.05600
H 	H 	0.82583 0.15770 0.52910 0.16000
H 	H 	0.75653 0.32620 0.42980 -0.04300
H 	H 	0.61223 0.02140 0.37690 0.04800
H 	H 	0.75893 0.04350 0.37850 0.04900
H 	H 	0.46883 0.15950 0.48170 0.05600
H 	H 	0.43063 0.30630 0.52950 -0.02400
H 	H 	0.66963 0.07070 0.64730 0.35400
H 	H 	0.69983 0.14760 0.74330 0.37700
H 	H 	0.80733 0.07940 0.68750 0.37000
H 	H 	0.85563 0.19840 0.67770 -0.25200
H 	H 	0.71073 0.28150 0.64820 0.39800
H 	H 	0.66853 0.27890 0.73310 0.39300
H 	H 	0.59783 0.21960 0.64310 0.40900
C 	C 	0.09070 0.52490 0.05760 0.46600
C 	C 	0.89560 0.79200 0.20420 -0.20400
C 	C 	0.97230 0.56650 0.11610 -0.47900
C 	C 	0.86580 0.85110 0.29240 0.07200
C 	C 	0.81200 0.72320 0.15430 0.12400
C 	C 	0.84630 0.65000 0.06230 -0.17300
C 	C 	0.69690 0.72030 0.19280 -0.19100
C 	C 	0.67360 0.78070 0.28060 0.06000
C 	C 	0.90090 0.42670 0.11160 -1.17200
C 	C 	0.94170 0.52210 0.17000 0.73900
C 	C 	0.84580 0.57420 0.24430 -1.21800
C 	C 	0.75737 0.53270 0.47510 0.45900
C 	C 	0.56227 0.41220 0.20800 -0.20400
C 	C 	0.63897 0.54960 0.43350 -0.50200
C 	C 	0.53247 0.44130 0.14890 0.07600
C 	C 	0.47867 0.43110 0.27680 0.12900
C 	C 	0.51297 0.41230 0.35000 -0.17800
C 	C 	0.36357 0.47250 0.27970 -0.19400
C 	C 	0.34027 0.49990 0.21930 0.06400
C 	C 	0.56757 0.68490 0.57330 -1.29800
C 	C 	0.60837 0.64790 0.47790 0.85700
C 	C 	0.51247 0.67010 0.42580 -1.34000
C 	C 	0.42403 0.94240 0.46730 0.45800
C 	C 	0.22893 0.79580 0.58780 -0.19700
C 	C 	0.30563 0.88390 0.45040 -0.51100
C 	C 	0.19913 0.70760 0.55870 0.07300
C 	C 	0.14533 0.84570 0.56890 0.11400
C 	C 	0.17963 0.93770 0.58770 -0.16900
C 	C 	0.03023 0.80720 0.52750 -0.15400
C 	C 	0.00693 0.71940 0.50010 0.09400
C 	C 	0.23423 0.88840 0.31510 -1.34000
C 	C 	0.27503 0.83000 0.35210 0.88800
C 	C 	0.17913 0.75570 0.32990 -1.38500
C 	C 	0.59070 0.47510 0.94240 0.45400
C 	C 	0.39560 0.20800 0.79580 -0.20500
C 	C 	0.47230 0.43350 0.88390 -0.50200
C 	C 	0.36580 0.14890 0.70760 0.07700
C 	C 	0.31200 0.27680 0.84570 0.13100
C 	C 	0.34630 0.35000 0.93770 -0.18000
C 	C 	0.19690 0.27970 0.80720 -0.19400
C 	C 	0.17360 0.21930 0.71940 0.06400
C 	C 	0.40090 0.57330 0.88840 -1.30400
C 	C 	0.44170 0.47790 0.83000 0.86200
C 	C 	0.34580 0.42580 0.75570 -1.34700
C 	C 	0.25737 0.46730 0.52490 0.44800
C 	C 	0.06227 0.58780 0.79200 -0.11300
C 	C 	0.13897 0.45040 0.56650 -0.46900
C 	C 	0.03247 0.55870 0.85110 0.06800
C 	C 	0.97867 0.56890 0.72320 0.00700
C 	C 	0.01297 0.58770 0.65000 -0.03500
C 	C 	0.86357 0.52750 0.72030 -0.12700
C 	C 	0.84027 0.50010 0.78070 0.02200
C 	C 	0.06757 0.31510 0.42670 -1.23700
C 	C 	0.10837 0.35210 0.52210 0.78500
C 	C 	0.01247 0.32990 0.57420 -1.16600
C 	C 	0.92403 0.05760 0.53270 0.41700
C 	C 	0.72893 0.20420 0.41220 -0.20400
C 	C 	0.80563 0.11610 0.54960 -0.48500
C 	C 	0.69913 0.29240 0.44130 0.07500
C 	C 	0.64533 0.15430 0.43110 0.12600
C 	C 	0.67963 0.06230 0.41230 -0.17600
C 	C 	0.53023 0.19280 0.47250 -0.19300
C 	C 	0.50693 0.28060 0.49990 0.06200
C 	C 	0.73423 0.11160 0.68490 -1.27400
C 	C 	0.77503 0.17000 0.64790 0.83900
C 	C 	0.67913 0.24430 0.67010 -1.32100
N 	N 	0.75780 0.84440 0.32970 -0.27800
N 	N 	0.86230 0.56470 0.06000 -0.20300
N 	N 	0.42447 0.48530 0.15560 -0.27700
N 	N 	0.52897 0.49530 0.43530 -0.19600
N 	N 	0.09113 0.67030 0.51470 -0.27800
N 	N 	0.19563 0.94000 0.50470 -0.19700
N 	N 	0.25780 0.15560 0.67030 -0.27700
N 	N 	0.36230 0.43530 0.94000 -0.19600
N 	N 	0.92447 0.51470 0.84440 -0.28300
N 	N 	0.02897 0.50470 0.56470 -0.19700
N 	N 	0.59113 0.32970 0.48530 -0.27800
N 	N 	0.69563 0.06000 0.49530 -0.19900
O 	O 	0.19270 0.53390 0.09930 -0.52600
O 	O 	0.08100 0.48600 0.97450 -0.50700
O 	O 	0.85937 0.56540 0.46610 -0.53600
O 	O 	0.74767 0.48850 0.51400 -0.51900
O 	O 	0.52603 0.90070 0.43460 -0.52900
O 	O 	0.41433 0.02550 0.51150 -0.51600
O 	O 	0.69270 0.46610 0.90070 -0.53000
O 	O 	0.58100 0.51400 0.02550 -0.51500
O 	O 	0.35937 0.43460 0.53390 -0.52500
O 	O 	0.24767 0.51150 0.48600 -0.51400
O 	O 	0.02603 0.09930 0.56540 -0.49400
O 	O 	0.91433 0.97450 0.48850 -0.51700
