data_crystal

_cell_length_a 9.21970
_cell_length_b 9.62280
_cell_length_c 10.56490
_cell_angle_alpha 90.00000
_cell_angle_beta  90.00000
_cell_angle_gamma 90.00000

_symmetry_space_group_name_	'P 1'
_symmetry_space_group_name_H-M	'P 1'

loop_
_symmetry_equiv_pos_as_xyz
  x,y,z

loop_
_atom_site_label
_atom_site_type_symbol
_atom_site_fract_x
_atom_site_fract_y
_atom_site_fract_z
_atom_site_charge
Ca	Ca	0.81393 0.68112 0.32289 1.50200
Ca	Ca	0.31393 0.81888 0.67711 1.50200
Ca	Ca	0.68607 0.31888 0.82289 1.50400
Ca	Ca	0.18607 0.18112 0.17711 1.50300
H 	H 	0.68912 0.26255 0.34276 0.03100
H 	H 	0.75094 0.17378 0.14285 0.02700
H 	H 	0.57131 0.45464 0.33983 0.12700
H 	H 	0.87631 0.31303 0.03443 0.15800
H 	H 	0.18912 0.23745 0.65724 0.03000
H 	H 	0.25094 0.32622 0.85715 0.02700
H 	H 	0.07131 0.04536 0.66017 0.12600
H 	H 	0.37631 0.18697 0.96557 0.15800
H 	H 	0.81088 0.73745 0.84276 0.03000
H 	H 	0.74906 0.82622 0.64285 0.02600
H 	H 	0.92869 0.54536 0.83983 0.12700
H 	H 	0.62369 0.68697 0.53443 0.15800
H 	H 	0.31088 0.76255 0.15724 0.03100
H 	H 	0.24906 0.67378 0.35715 0.02700
H 	H 	0.42869 0.95464 0.16017 0.12800
H 	H 	0.12369 0.81303 0.46557 0.15800
C 	C 	0.89000 0.35690 0.29590 0.35000
C 	C 	0.72630 0.33900 0.27560 -0.02100
C 	C 	0.70220 0.27360 0.14220 -0.01300
C 	C 	0.54140 0.26070 0.10620 0.33900
C 	C 	0.39000 0.14310 0.70410 0.35000
C 	C 	0.22630 0.16100 0.72440 -0.02100
C 	C 	0.20220 0.22640 0.85780 -0.01300
C 	C 	0.04140 0.23930 0.89380 0.33800
C 	C 	0.61000 0.64310 0.79590 0.35000
C 	C 	0.77370 0.66100 0.77560 -0.02100
C 	C 	0.79780 0.72640 0.64220 -0.01300
C 	C 	0.95860 0.73930 0.60620 0.34000
C 	C 	0.11000 0.85690 0.20410 0.34900
C 	C 	0.27370 0.83900 0.22440 -0.02100
C 	C 	0.29780 0.77360 0.35780 -0.01300
C 	C 	0.45860 0.76070 0.39380 0.34100
O 	O 	0.94201 0.47005 0.32557 -0.44600
O 	O 	0.96154 0.24580 0.28371 -0.42900
O 	O 	0.66052 0.47417 0.28152 -0.36700
O 	O 	0.77303 0.35473 0.04798 -0.37700
O 	O 	0.45173 0.23519 0.18936 -0.43100
O 	O 	0.51541 0.26735 0.98667 -0.45100
O 	O 	0.44201 0.02995 0.67443 -0.44500
O 	O 	0.46154 0.25420 0.71629 -0.42900
O 	O 	0.16052 0.02583 0.71848 -0.36700
O 	O 	0.27303 0.14527 0.95202 -0.37500
O 	O 	0.95173 0.26481 0.81064 -0.42600
O 	O 	0.01541 0.23265 0.01333 -0.45600
O 	O 	0.55799 0.52995 0.82557 -0.44600
O 	O 	0.53846 0.75420 0.78371 -0.43000
O 	O 	0.83948 0.52583 0.78152 -0.36700
O 	O 	0.72697 0.64527 0.54798 -0.37600
O 	O 	0.04827 0.76481 0.68936 -0.43000
O 	O 	0.98459 0.73265 0.48667 -0.45500
O 	O 	0.05799 0.97005 0.17443 -0.44300
O 	O 	0.03846 0.74580 0.21629 -0.42800
O 	O 	0.33948 0.97417 0.21848 -0.36600
O 	O 	0.22697 0.85473 0.45202 -0.37600
O 	O 	0.54827 0.73519 0.31064 -0.43100
O 	O 	0.48459 0.76735 0.51333 -0.45400
