data_crystal

_cell_length_a 11.98870
_cell_length_b 17.98070
_cell_length_c 18.63650
_cell_angle_alpha 90.00000
_cell_angle_beta  90.00000
_cell_angle_gamma 90.00000

_symmetry_space_group_name_	'P 1'
_symmetry_space_group_name_H-M	'P 1'

loop_
_symmetry_equiv_pos_as_xyz
  x,y,z

loop_
_atom_site_label
_atom_site_type_symbol
_atom_site_fract_x
_atom_site_fract_y
_atom_site_fract_z
_atom_site_charge
Zn	Zn	0.61039 0.80242 0.99103 1.20200
Zn	Zn	0.88961 0.80242 0.00897 1.24600
Zn	Zn	0.38961 0.69758 0.99103 1.20100
Zn	Zn	0.11039 0.69758 0.00897 1.24300
Zn	Zn	0.38961 0.19758 0.00897 1.24500
Zn	Zn	0.11039 0.19758 0.99103 1.20000
Zn	Zn	0.61039 0.30242 0.00897 1.24500
Zn	Zn	0.88961 0.30242 0.99103 1.20300
H 	H 	0.12600 0.25670 0.20730 0.10200
H 	H 	0.44950 0.98970 0.07740 0.02200
H 	H 	0.11660 0.17040 0.76460 0.00200
H 	H 	0.35090 0.07970 0.13840 0.09300
H 	H 	0.11390 0.16930 0.64150 0.09200
H 	H 	0.14530 0.19620 0.40990 0.09400
H 	H 	0.10350 0.93490 0.17360 0.09400
H 	H 	0.20420 0.84480 0.11530 0.00100
H 	H 	0.20970 0.16300 0.14310 0.00400
H 	H 	0.14190 0.19450 0.53240 0.00500
H 	H 	0.99140 0.10640 0.33910 0.10900
H 	H 	0.07450 0.01150 0.27380 0.00800
H 	H 	0.37400 0.25670 0.79270 0.10300
H 	H 	0.05050 0.98970 0.92260 -0.00700
H 	H 	0.38340 0.17040 0.23540 0.00300
H 	H 	0.14910 0.07970 0.86160 0.09300
H 	H 	0.38610 0.16930 0.35850 0.09200
H 	H 	0.35470 0.19620 0.59010 0.09500
H 	H 	0.39650 0.93490 0.82640 0.09900
H 	H 	0.29580 0.84480 0.88470 -0.01400
H 	H 	0.29030 0.16300 0.85690 -0.00500
H 	H 	0.35810 0.19450 0.46760 0.00500
H 	H 	0.50860 0.10640 0.66090 0.09400
H 	H 	0.42550 0.01150 0.72620 0.01300
H 	H 	0.87400 0.24330 0.20730 0.10000
H 	H 	0.55050 0.51030 0.07740 0.02300
H 	H 	0.88340 0.32960 0.76460 0.00100
H 	H 	0.64910 0.42030 0.13840 0.09100
H 	H 	0.88610 0.33070 0.64150 0.09200
H 	H 	0.85470 0.30380 0.40990 0.09200
H 	H 	0.89650 0.56510 0.17360 0.09600
H 	H 	0.79580 0.65520 0.11530 0.00400
H 	H 	0.79030 0.33700 0.14310 0.00900
H 	H 	0.85810 0.30550 0.53240 0.00400
H 	H 	0.00860 0.39360 0.33910 0.07700
H 	H 	0.92550 0.48850 0.27380 0.02300
H 	H 	0.62600 0.24330 0.79270 0.10300
H 	H 	0.94950 0.51030 0.92260 -0.00100
H 	H 	0.61660 0.32960 0.23540 0.00300
H 	H 	0.85090 0.42030 0.86160 0.09400
H 	H 	0.61390 0.33070 0.35850 0.09300
H 	H 	0.64530 0.30380 0.59010 0.09600
H 	H 	0.60350 0.56510 0.82640 0.09800
H 	H 	0.70420 0.65520 0.88470 -0.01300
H 	H 	0.70970 0.33700 0.85690 -0.00500
H 	H 	0.64190 0.30550 0.46760 0.00500
H 	H 	0.49140 0.39360 0.66090 0.09400
H 	H 	0.57450 0.48850 0.72620 0.01400
H 	H 	0.87400 0.74330 0.79270 0.10300
H 	H 	0.55050 0.01030 0.92260 -0.00400
H 	H 	0.88340 0.82960 0.23540 0.00200
H 	H 	0.64910 0.92030 0.86160 0.09300
H 	H 	0.88610 0.83070 0.35850 0.09100
H 	H 	0.85470 0.80380 0.59010 0.09300
H 	H 	0.89650 0.06510 0.82640 0.10000
H 	H 	0.79580 0.15520 0.88470 -0.01200
H 	H 	0.79030 0.83700 0.85690 -0.00300
H 	H 	0.85810 0.80550 0.46760 0.00400
H 	H 	0.00860 0.89360 0.66090 0.08000
H 	H 	0.92550 0.98850 0.72620 0.02000
H 	H 	0.62600 0.74330 0.20730 0.10000
H 	H 	0.94950 0.01030 0.07740 0.02500
H 	H 	0.61660 0.82960 0.76460 0.00200
H 	H 	0.85090 0.92030 0.13840 0.09300
H 	H 	0.61390 0.83070 0.64150 0.09300
H 	H 	0.64530 0.80380 0.40990 0.09600
H 	H 	0.60350 0.06510 0.17360 0.09400
H 	H 	0.70420 0.15520 0.11530 0.00300
H 	H 	0.70970 0.83700 0.14310 0.00700
H 	H 	0.64190 0.80550 0.53240 0.00500
H 	H 	0.49140 0.89360 0.33910 0.09100
H 	H 	0.57450 0.98850 0.27380 0.01700
H 	H 	0.12600 0.75670 0.79270 0.10500
H 	H 	0.44950 0.48970 0.92260 -0.00500
H 	H 	0.11660 0.67040 0.23540 0.00300
H 	H 	0.35090 0.57970 0.86160 0.09500
H 	H 	0.11390 0.66930 0.35850 0.09100
H 	H 	0.14530 0.69620 0.59010 0.09400
H 	H 	0.10350 0.43490 0.82640 0.09800
H 	H 	0.20420 0.34480 0.88470 -0.01400
H 	H 	0.20970 0.66300 0.85690 -0.00800
H 	H 	0.14190 0.69450 0.46760 0.00500
H 	H 	0.99140 0.60640 0.66090 0.11100
H 	H 	0.07450 0.51150 0.72620 0.00500
H 	H 	0.37400 0.75670 0.20730 0.10000
H 	H 	0.05050 0.48970 0.07740 0.01900
H 	H 	0.38340 0.67040 0.76460 0.00200
H 	H 	0.14910 0.57970 0.13840 0.09200
H 	H 	0.38610 0.66930 0.64150 0.09300
H 	H 	0.35470 0.69620 0.40990 0.09500
H 	H 	0.39650 0.43490 0.17360 0.09500
H 	H 	0.29580 0.34480 0.11530 0.00200
H 	H 	0.29030 0.66300 0.14310 0.00700
H 	H 	0.35810 0.69450 0.53240 0.00500
H 	H 	0.50860 0.60640 0.33910 0.09200
H 	H 	0.42550 0.51150 0.27380 0.01600
C 	C 	0.40150 0.84930 0.05240 0.43500
C 	C 	0.33730 0.90770 0.09000 -0.17300
C 	C 	0.11630 0.20750 0.22140 -0.18500
C 	C 	0.05190 0.19150 0.28040 0.16200
C 	C 	0.38030 0.97830 0.09710 0.10600
C 	C 	0.06910 0.20250 0.74010 0.10600
C 	C 	0.32050 0.03240 0.13360 -0.17400
C 	C 	0.21640 0.01770 0.16330 0.12900
C 	C 	0.15500 0.07670 0.20220 -0.09100
C 	C 	0.06790 0.20230 0.66590 -0.18200
C 	C 	0.08580 0.21790 0.43410 -0.17800
C 	C 	0.17340 0.94630 0.15500 -0.17700
C 	C 	0.23370 0.89250 0.11960 0.11300
C 	C 	0.16670 0.15100 0.18300 0.05500
C 	C 	0.08380 0.21760 0.50790 0.05800
C 	C 	0.03600 0.11790 0.29980 -0.19500
C 	C 	0.08660 0.06080 0.26070 0.05500
C 	C 	0.09850 0.84930 0.94760 0.44600
C 	C 	0.16270 0.90770 0.91000 -0.20900
C 	C 	0.38370 0.20750 0.77860 -0.18300
C 	C 	0.44810 0.19150 0.71960 0.15700
C 	C 	0.11970 0.97830 0.90290 0.12000
C 	C 	0.43090 0.20250 0.25990 0.10400
C 	C 	0.17950 0.03240 0.86640 -0.20100
C 	C 	0.28360 0.01770 0.83670 0.13800
C 	C 	0.34500 0.07670 0.79780 -0.09300
C 	C 	0.43210 0.20230 0.33410 -0.18100
C 	C 	0.41420 0.21790 0.56590 -0.18100
C 	C 	0.32660 0.94630 0.84500 -0.19900
C 	C 	0.26630 0.89250 0.88040 0.12300
C 	C 	0.33330 0.15100 0.81700 0.05800
C 	C 	0.41620 0.21760 0.49210 0.05900
C 	C 	0.46400 0.11790 0.70020 -0.17200
C 	C 	0.41340 0.06080 0.73930 0.04800
C 	C 	0.59850 0.65070 0.05240 0.43400
C 	C 	0.66270 0.59230 0.09000 -0.17000
C 	C 	0.88370 0.29250 0.22140 -0.16800
C 	C 	0.94810 0.30850 0.28040 0.15000
C 	C 	0.61970 0.52170 0.09710 0.10300
C 	C 	0.93090 0.29750 0.74010 0.11600
C 	C 	0.67950 0.46760 0.13360 -0.16900
C 	C 	0.78360 0.48230 0.16330 0.12300
C 	C 	0.84500 0.42330 0.20220 -0.07200
C 	C 	0.93210 0.29770 0.66590 -0.17300
C 	C 	0.91420 0.28210 0.43410 -0.16800
C 	C 	0.82660 0.55370 0.15500 -0.17200
C 	C 	0.76630 0.60750 0.11960 0.11000
C 	C 	0.83330 0.34900 0.18300 0.04200
C 	C 	0.91620 0.28240 0.50790 0.06700
C 	C 	0.96400 0.38210 0.29980 -0.14100
C 	C 	0.91340 0.43920 0.26070 0.02600
C 	C 	0.90150 0.65070 0.94760 0.44400
C 	C 	0.83730 0.59230 0.91000 -0.20400
C 	C 	0.61630 0.29250 0.77860 -0.18200
C 	C 	0.55190 0.30850 0.71960 0.15600
C 	C 	0.88030 0.52170 0.90290 0.11700
C 	C 	0.56910 0.29750 0.25990 0.10400
C 	C 	0.82050 0.46760 0.86640 -0.19600
C 	C 	0.71640 0.48230 0.83670 0.13600
C 	C 	0.65500 0.42330 0.79780 -0.09200
C 	C 	0.56790 0.29770 0.33410 -0.18100
C 	C 	0.58580 0.28210 0.56590 -0.18100
C 	C 	0.67340 0.55370 0.84500 -0.19600
C 	C 	0.73370 0.60750 0.88040 0.12100
C 	C 	0.66670 0.34900 0.81700 0.05700
C 	C 	0.58380 0.28240 0.49210 0.06000
C 	C 	0.53600 0.38210 0.70020 -0.17100
C 	C 	0.58660 0.43920 0.73930 0.04700
C 	C 	0.59850 0.15070 0.94760 0.44400
C 	C 	0.66270 0.09230 0.91000 -0.20500
C 	C 	0.88370 0.79250 0.77860 -0.17800
C 	C 	0.94810 0.80850 0.71960 0.15500
C 	C 	0.61970 0.02170 0.90290 0.11800
C 	C 	0.93090 0.79750 0.25990 0.11300
C 	C 	0.67950 0.96760 0.86640 -0.19600
C 	C 	0.78360 0.98230 0.83670 0.13400
C 	C 	0.84500 0.92330 0.79780 -0.08500
C 	C 	0.93210 0.79770 0.33410 -0.17200
C 	C 	0.91420 0.78210 0.56590 -0.16900
C 	C 	0.82660 0.05370 0.84500 -0.19500
C 	C 	0.76630 0.10750 0.88040 0.12100
C 	C 	0.83330 0.84900 0.81700 0.05300
C 	C 	0.91620 0.78240 0.49210 0.06600
C 	C 	0.96400 0.88210 0.70020 -0.14900
C 	C 	0.91340 0.93920 0.73930 0.03500
C 	C 	0.90150 0.15070 0.05240 0.43400
C 	C 	0.83730 0.09230 0.09000 -0.16900
C 	C 	0.61630 0.79250 0.22140 -0.17300
C 	C 	0.55190 0.80850 0.28040 0.15100
C 	C 	0.88030 0.02170 0.09710 0.10400
C 	C 	0.56910 0.79750 0.74010 0.10700
C 	C 	0.82050 0.96760 0.13360 -0.17000
C 	C 	0.71640 0.98230 0.16330 0.12400
C 	C 	0.65500 0.92330 0.20220 -0.07900
C 	C 	0.56790 0.79770 0.66590 -0.18200
C 	C 	0.58580 0.78210 0.43410 -0.18100
C 	C 	0.67340 0.05370 0.15500 -0.17300
C 	C 	0.73370 0.10750 0.11960 0.11000
C 	C 	0.66670 0.84900 0.18300 0.04600
C 	C 	0.58380 0.78240 0.50790 0.06000
C 	C 	0.53600 0.88210 0.29980 -0.16500
C 	C 	0.58660 0.93920 0.26070 0.03800
C 	C 	0.40150 0.34930 0.94760 0.44500
C 	C 	0.33730 0.40770 0.91000 -0.20800
C 	C 	0.11630 0.70750 0.77860 -0.19300
C 	C 	0.05190 0.69150 0.71960 0.16700
C 	C 	0.38030 0.47830 0.90290 0.12100
C 	C 	0.06910 0.70250 0.25990 0.10400
C 	C 	0.32050 0.53240 0.86640 -0.20200
C 	C 	0.21640 0.51770 0.83670 0.14100
C 	C 	0.15500 0.57670 0.79780 -0.10300
C 	C 	0.06790 0.70230 0.33410 -0.18000
C 	C 	0.08580 0.71790 0.56590 -0.17800
C 	C 	0.17340 0.44630 0.84500 -0.20100
C 	C 	0.23370 0.39250 0.88040 0.12400
C 	C 	0.16670 0.65100 0.81700 0.06600
C 	C 	0.08380 0.71760 0.49210 0.05800
C 	C 	0.03600 0.61790 0.70020 -0.20000
C 	C 	0.08660 0.56080 0.73930 0.06400
C 	C 	0.09850 0.34930 0.05240 0.43600
C 	C 	0.16270 0.40770 0.09000 -0.17400
C 	C 	0.38370 0.70750 0.22140 -0.17400
C 	C 	0.44810 0.69150 0.28040 0.15100
C 	C 	0.11970 0.47830 0.09710 0.10500
C 	C 	0.43090 0.70250 0.74010 0.10700
C 	C 	0.17950 0.53240 0.13360 -0.17300
C 	C 	0.28360 0.51770 0.16330 0.12600
C 	C 	0.34500 0.57670 0.20220 -0.08000
C 	C 	0.43210 0.70230 0.66590 -0.18200
C 	C 	0.41420 0.71790 0.43410 -0.18100
C 	C 	0.32660 0.44630 0.15500 -0.17600
C 	C 	0.26630 0.39250 0.11960 0.11200
C 	C 	0.33330 0.65100 0.18300 0.04700
C 	C 	0.41620 0.71760 0.50790 0.06000
C 	C 	0.46400 0.61790 0.29980 -0.16500
C 	C 	0.41340 0.56080 0.26070 0.03900
C 	C 	0.00000 0.25000 0.39580 0.14700
C 	C 	-0.00000 0.25000 0.62680 0.12000
C 	C 	0.00000 0.25000 0.85870 0.43300
C 	C 	0.00000 0.25000 0.54710 -0.10400
C 	C 	0.00000 0.25000 0.77820 -0.19400
C 	C 	0.50000 0.25000 0.60420 0.16000
C 	C 	0.50000 0.25000 0.37320 0.12800
C 	C 	0.50000 0.25000 0.14130 0.43900
C 	C 	0.50000 0.25000 0.45290 -0.09600
C 	C 	0.50000 0.25000 0.22180 -0.18200
C 	C 	0.00000 0.75000 0.60420 0.14900
C 	C 	0.00000 0.75000 0.37320 0.11900
C 	C 	0.00000 0.75000 0.14130 0.43000
C 	C 	0.00000 0.75000 0.45290 -0.10300
C 	C 	0.00000 0.75000 0.22180 -0.19000
C 	C 	0.50000 0.75000 0.39580 0.16000
C 	C 	0.50000 0.75000 0.62680 0.12900
C 	C 	0.50000 0.75000 0.85870 0.44200
C 	C 	0.50000 0.75000 0.54710 -0.09600
C 	C 	0.50000 0.75000 0.77820 -0.18600
N 	N 	0.00000 0.25000 0.31960 -0.18700
N 	N 	0.50000 0.25000 0.68040 -0.18500
N 	N 	0.00000 0.75000 0.68040 -0.18800
N 	N 	0.50000 0.75000 0.31960 -0.18300
O 	O 	0.49480 0.86769 0.02658 -0.47800
O 	O 	0.07770 0.21632 0.88950 -0.52900
O 	O 	0.35980 0.78542 0.04900 -0.51100
O 	O 	0.00520 0.86769 0.97342 -0.54300
O 	O 	0.42230 0.21632 0.11050 -0.50600
O 	O 	0.14020 0.78542 0.95100 -0.56200
O 	O 	0.50520 0.63231 0.02658 -0.47700
O 	O 	0.92230 0.28368 0.88950 -0.52100
O 	O 	0.64020 0.71458 0.04900 -0.51100
O 	O 	0.99480 0.63231 0.97342 -0.53200
O 	O 	0.57770 0.28368 0.11050 -0.50600
O 	O 	0.85980 0.71458 0.95100 -0.55800
O 	O 	0.50520 0.13231 0.97342 -0.53700
O 	O 	0.92230 0.78368 0.11050 -0.49800
O 	O 	0.64020 0.21458 0.95100 -0.56000
O 	O 	0.99480 0.13231 0.02658 -0.47300
O 	O 	0.57770 0.78368 0.88950 -0.53000
O 	O 	0.85980 0.21458 0.04900 -0.51000
O 	O 	0.49480 0.36769 0.97342 -0.53800
O 	O 	0.07770 0.71632 0.11050 -0.50600
O 	O 	0.35980 0.28542 0.95100 -0.56000
O 	O 	0.00520 0.36769 0.02658 -0.48400
O 	O 	0.42230 0.71632 0.88950 -0.53000
O 	O 	0.14020 0.28542 0.04900 -0.51300
O 	O 	0.75000 0.85320 -0.00000 -0.50100
O 	O 	0.25000 0.64680 -0.00000 -0.50200
O 	O 	0.25000 0.14680 -0.00000 -0.50200
O 	O 	0.75000 0.35320 -0.00000 -0.50000
