data_crystal

_cell_length_a 7.26030
_cell_length_b 10.35230
_cell_length_c 18.69200
_cell_angle_alpha 90.00000
_cell_angle_beta  94.08700
_cell_angle_gamma 90.00000

_symmetry_space_group_name_	'P 1'
_symmetry_space_group_name_H-M	'P 1'

loop_
_symmetry_equiv_pos_as_xyz
  x,y,z

loop_
_atom_site_label
_atom_site_type_symbol
_atom_site_fract_x
_atom_site_fract_y
_atom_site_fract_z
_atom_site_charge
Ca	Ca	0.74695 0.25720 0.86708 1.50000
Ca	Ca	0.75305 0.75720 0.63292 1.50000
Ca	Ca	0.25305 0.74280 0.13292 1.50000
Ca	Ca	0.24695 0.24280 0.36708 1.50000
P 	P 	0.82366 0.43439 0.70006 0.45100
P 	P 	0.67634 0.93439 0.79994 0.45100
P 	P 	0.17634 0.56561 0.29994 0.45100
P 	P 	0.32366 0.06561 0.20006 0.45100
H 	H 	0.12130 0.41720 0.79480 0.11600
H 	H 	0.23820 0.46180 0.73210 0.14400
H 	H 	0.99170 0.30140 0.58830 0.02300
H 	H 	0.18410 0.24940 0.61860 0.02500
H 	H 	0.31140 0.45300 0.61960 0.18900
H 	H 	0.11740 0.51780 0.60480 0.18600
H 	H 	0.48740 0.15370 0.76600 0.16100
H 	H 	0.71680 0.42230 0.57630 0.17900
H 	H 	0.87150 0.05330 0.69670 0.28800
H 	H 	0.37870 0.91720 0.70520 0.11600
H 	H 	0.26180 0.96180 0.76790 0.14300
H 	H 	0.50830 0.80140 0.91170 0.02300
H 	H 	0.31590 0.74940 0.88140 0.02500
H 	H 	0.18860 0.95300 0.88040 0.18900
H 	H 	0.38260 0.01780 0.89520 0.18700
H 	H 	0.01260 0.65370 0.73400 0.16100
H 	H 	0.78320 0.92230 0.92370 0.17900
H 	H 	0.62850 0.55330 0.80330 0.28800
H 	H 	0.87870 0.58280 0.20520 0.11600
H 	H 	0.76180 0.53820 0.26790 0.14400
H 	H 	0.00830 0.69860 0.41170 0.02300
H 	H 	0.81590 0.75060 0.38140 0.02500
H 	H 	0.68860 0.54700 0.38040 0.18900
H 	H 	0.88260 0.48220 0.39520 0.18600
H 	H 	0.51260 0.84630 0.23400 0.16100
H 	H 	0.28320 0.57770 0.42370 0.17900
H 	H 	0.12850 0.94670 0.30330 0.28800
H 	H 	0.62130 0.08280 0.29480 0.11600
H 	H 	0.73820 0.03820 0.23210 0.14300
H 	H 	0.49170 0.19860 0.08830 0.02300
H 	H 	0.68410 0.25060 0.11860 0.02500
H 	H 	0.81140 0.04700 0.11960 0.18900
H 	H 	0.61740 0.98220 0.10480 0.18700
H 	H 	0.98740 0.34630 0.26600 0.16100
H 	H 	0.21680 0.07770 0.07630 0.17900
H 	H 	0.37150 0.44670 0.19670 0.28800
C 	C 	0.33500 0.29650 0.77940 0.40900
C 	C 	0.18290 0.38710 0.75351 -0.29900
C 	C 	0.03500 0.33030 0.69828 -0.12300
C 	C 	0.09840 0.32090 0.62072 0.10500
C 	C 	0.19140 0.44330 0.59391 -0.46700
C 	C 	0.21620 0.44140 0.51450 0.49700
C 	C 	0.97850 0.20040 0.72660 0.42100
C 	C 	0.16500 0.79650 0.72060 0.40900
C 	C 	0.31710 0.88710 0.74649 -0.29900
C 	C 	0.46500 0.83030 0.80172 -0.12400
C 	C 	0.40160 0.82090 0.87928 0.10500
C 	C 	0.30860 0.94330 0.90609 -0.46800
C 	C 	0.28380 0.94140 0.98550 0.49600
C 	C 	0.52150 0.70040 0.77340 0.42200
C 	C 	0.66500 0.70350 0.22060 0.40900
C 	C 	0.81710 0.61290 0.24649 -0.29900
C 	C 	0.96500 0.66970 0.30172 -0.12300
C 	C 	0.90160 0.67910 0.37928 0.10500
C 	C 	0.80860 0.55670 0.40609 -0.46700
C 	C 	0.78380 0.55860 0.48550 0.49700
C 	C 	0.02150 0.79960 0.27340 0.42100
C 	C 	0.83500 0.20350 0.27940 0.40900
C 	C 	0.68290 0.11290 0.25351 -0.29900
C 	C 	0.53500 0.16970 0.19828 -0.12400
C 	C 	0.59840 0.17910 0.12072 0.10500
C 	C 	0.69140 0.05670 0.09391 -0.46800
C 	C 	0.71620 0.05860 0.01450 0.49600
C 	C 	0.47850 0.29960 0.22660 0.42200
O 	O 	0.41790 0.30940 0.83870 -0.44400
O 	O 	0.37230 0.20400 0.73528 -0.34700
O 	O 	0.18620 0.34940 0.47565 -0.51000
O 	O 	0.27580 0.55250 0.49232 -0.36200
O 	O 	0.98220 0.17680 0.79076 -0.45300
O 	O 	0.91900 0.11710 0.67754 -0.50300
O 	O 	0.74710 0.41100 0.77256 -0.43700
O 	O 	0.88930 0.57290 0.69219 -0.43000
O 	O 	0.69140 0.39540 0.63728 -0.31900
O 	O 	0.08210 0.80940 0.66130 -0.44400
O 	O 	0.12770 0.70400 0.76472 -0.34700
O 	O 	0.31380 0.84940 0.02435 -0.50900
O 	O 	0.22420 0.05250 0.00768 -0.36200
O 	O 	0.51780 0.67680 0.70924 -0.45300
O 	O 	0.58100 0.61710 0.82246 -0.50300
O 	O 	0.75290 0.91100 0.72744 -0.43700
O 	O 	0.61070 0.07290 0.80781 -0.42900
O 	O 	0.80860 0.89540 0.86272 -0.31900
O 	O 	0.58210 0.69060 0.16130 -0.44400
O 	O 	0.62770 0.79600 0.26472 -0.34700
O 	O 	0.81380 0.65060 0.52435 -0.51000
O 	O 	0.72420 0.44750 0.50768 -0.36200
O 	O 	0.01780 0.82320 0.20924 -0.45300
O 	O 	0.08100 0.88290 0.32246 -0.50300
O 	O 	0.25290 0.58900 0.22744 -0.43700
O 	O 	0.11070 0.42710 0.30781 -0.43000
O 	O 	0.30860 0.60460 0.36272 -0.31900
O 	O 	0.91790 0.19060 0.33870 -0.44400
O 	O 	0.87230 0.29600 0.23528 -0.34700
O 	O 	0.68620 0.15060 0.97565 -0.50900
O 	O 	0.77580 0.94750 0.99232 -0.36200
O 	O 	0.48220 0.32320 0.29076 -0.45300
O 	O 	0.41900 0.38290 0.17754 -0.50300
O 	O 	0.24710 0.08900 0.27256 -0.43700
O 	O 	0.38930 0.92710 0.19219 -0.42900
O 	O 	0.19140 0.10460 0.13728 -0.31900
