data_crystal

_cell_length_a 10.18100
_cell_length_b 21.49170
_cell_length_c 21.49170
_cell_angle_alpha 90.00000
_cell_angle_beta  90.00000
_cell_angle_gamma 90.00000

_symmetry_space_group_name_	'P 1'
_symmetry_space_group_name_H-M	'P 1'

loop_
_symmetry_equiv_pos_as_xyz
  x,y,z

loop_
_atom_site_label
_atom_site_type_symbol
_atom_site_fract_x
_atom_site_fract_y
_atom_site_fract_z
_atom_site_charge
Al	Al	0.00000 0.31655 -0.00000 2.38200
Al	Al	0.00000 0.68345 0.50000 2.39700
Al	Al	0.50000 0.18345 -0.00000 2.38800
Al	Al	0.75000 0.25000 0.93345 2.40200
Al	Al	0.25000 0.25000 0.06655 2.40300
Al	Al	0.25000 0.75000 0.43345 2.40200
Al	Al	0.75000 0.75000 0.56655 2.40300
Al	Al	0.50000 0.81655 0.50000 2.40300
Al	Al	0.00000 0.68345 -0.00000 2.38300
Al	Al	0.00000 0.31655 0.50000 2.39800
Al	Al	0.50000 0.81655 -0.00000 2.38900
Al	Al	0.25000 0.75000 0.06655 2.40400
Al	Al	0.75000 0.75000 0.93345 2.40300
Al	Al	0.75000 0.25000 0.56655 2.40400
Al	Al	0.25000 0.25000 0.43345 2.40300
Al	Al	0.50000 0.18345 0.50000 2.40400
C 	C 	0.42131 0.44403 0.07936 0.08300
C 	C 	0.42131 0.55597 0.42064 0.13100
C 	C 	0.57869 0.55597 0.57936 0.13200
C 	C 	0.92131 0.05597 0.92064 0.19400
C 	C 	0.07869 0.05597 0.07936 0.06800
C 	C 	0.32869 0.17064 0.80597 0.14500
C 	C 	0.67131 0.17064 0.19403 0.11800
C 	C 	0.82869 0.67064 0.30597 0.02100
C 	C 	0.17131 0.67064 0.69403 0.23500
C 	C 	0.17131 0.32936 0.80597 0.25700
C 	C 	0.82869 0.32936 0.19403 -0.00200
C 	C 	0.67131 0.82936 0.30597 0.14400
C 	C 	0.32869 0.82936 0.69403 0.12400
C 	C 	0.57869 0.44403 0.92064 0.18000
C 	C 	0.07869 0.94403 0.42064 0.12400
C 	C 	0.92131 0.94403 0.57936 0.15700
C 	C 	0.57869 0.55597 0.92064 0.18000
C 	C 	0.57869 0.44403 0.57936 0.13200
C 	C 	0.42131 0.44403 0.42064 0.13100
C 	C 	0.07869 0.94403 0.07936 0.07700
C 	C 	0.92131 0.94403 0.92064 0.20400
C 	C 	0.67131 0.82936 0.19403 0.12100
C 	C 	0.32869 0.82936 0.80597 0.14800
C 	C 	0.17131 0.32936 0.69403 0.23400
C 	C 	0.82869 0.32936 0.30597 0.02100
C 	C 	0.82869 0.67064 0.19403 -0.00300
C 	C 	0.17131 0.67064 0.80597 0.25700
C 	C 	0.32869 0.17064 0.69403 0.12100
C 	C 	0.67131 0.17064 0.30597 0.14100
C 	C 	0.42131 0.55597 0.07936 0.08300
C 	C 	0.92131 0.05597 0.57936 0.14700
C 	C 	0.07869 0.05597 0.42064 0.11600
C 	C 	0.29803 0.44557 0.05494 -0.23900
C 	C 	0.29803 0.55443 0.44506 -0.23000
C 	C 	0.70197 0.55443 0.55494 -0.22600
C 	C 	0.79803 0.05443 0.94506 -0.21000
C 	C 	0.20197 0.05443 0.05494 -0.24100
C 	C 	0.45197 0.19506 0.80443 -0.21800
C 	C 	0.54803 0.19506 0.19557 -0.23800
C 	C 	0.95197 0.69506 0.30443 0.08800
C 	C 	0.04803 0.69506 0.69557 -0.52400
C 	C 	0.04803 0.30494 0.80443 -0.51200
C 	C 	0.95197 0.30494 0.19557 0.08400
C 	C 	0.54803 0.80494 0.30443 -0.23200
C 	C 	0.45197 0.80494 0.69557 -0.22500
C 	C 	0.70197 0.44557 0.94506 -0.21700
C 	C 	0.20197 0.94557 0.44506 -0.22200
C 	C 	0.79803 0.94557 0.55494 -0.20900
C 	C 	0.70197 0.55443 0.94506 -0.21700
C 	C 	0.70197 0.44557 0.55494 -0.22600
C 	C 	0.29803 0.44557 0.44506 -0.23000
C 	C 	0.20197 0.94557 0.05494 -0.23200
C 	C 	0.79803 0.94557 0.94506 -0.20000
C 	C 	0.54803 0.80494 0.19557 -0.23800
C 	C 	0.45197 0.80494 0.80443 -0.21900
C 	C 	0.04803 0.30494 0.69557 -0.52200
C 	C 	0.95197 0.30494 0.30443 0.08700
C 	C 	0.95197 0.69506 0.19557 0.08500
C 	C 	0.04803 0.69506 0.80443 -0.51400
C 	C 	0.45197 0.19506 0.69557 -0.22400
C 	C 	0.54803 0.19506 0.30443 -0.23200
C 	C 	0.29803 0.55443 0.05494 -0.23900
C 	C 	0.79803 0.05443 0.55494 -0.21900
C 	C 	0.20197 0.05443 0.44506 -0.23200
C 	C 	0.22720 0.38696 0.04596 0.54400
C 	C 	0.22720 0.61304 0.45404 0.54600
C 	C 	0.77280 0.61304 0.54596 0.55000
C 	C 	0.72720 0.11304 0.95404 0.55100
C 	C 	0.27280 0.11304 0.04596 0.54200
C 	C 	0.52280 0.20404 0.86304 0.53700
C 	C 	0.47720 0.20404 0.13696 0.55800
C 	C 	0.02280 0.70404 0.36304 0.28600
C 	C 	0.97720 0.70404 0.63696 0.79800
C 	C 	0.97720 0.29596 0.86304 0.78000
C 	C 	0.02280 0.29596 0.13696 0.29100
C 	C 	0.47720 0.79596 0.36304 0.55100
C 	C 	0.52280 0.79596 0.63696 0.54800
C 	C 	0.77280 0.38696 0.95404 0.55200
C 	C 	0.27280 0.88696 0.45404 0.54400
C 	C 	0.72720 0.88696 0.54596 0.54900
C 	C 	0.77280 0.61304 0.95404 0.55200
C 	C 	0.77280 0.38696 0.54596 0.55000
C 	C 	0.22720 0.38696 0.45404 0.54600
C 	C 	0.27280 0.88696 0.04596 0.54100
C 	C 	0.72720 0.88696 0.95404 0.54900
C 	C 	0.47720 0.79596 0.13696 0.55900
C 	C 	0.52280 0.79596 0.86304 0.53800
C 	C 	0.97720 0.29596 0.63696 0.79700
C 	C 	0.02280 0.29596 0.36304 0.28700
C 	C 	0.02280 0.70404 0.13696 0.29000
C 	C 	0.97720 0.70404 0.86304 0.78100
C 	C 	0.52280 0.20404 0.63696 0.54700
C 	C 	0.47720 0.20404 0.36304 0.55000
C 	C 	0.22720 0.61304 0.04596 0.54400
C 	C 	0.72720 0.11304 0.54596 0.55000
C 	C 	0.27280 0.11304 0.45404 0.54500
C 	C 	0.63143 0.50000 0.11474 -0.02500
C 	C 	0.63143 0.50000 0.38526 0.04400
C 	C 	0.36857 0.50000 0.61474 0.02200
C 	C 	0.13143 0.00000 0.88526 0.02200
C 	C 	0.86857 0.00000 0.11474 0.04500
C 	C 	0.11857 0.13526 0.75000 -0.00800
C 	C 	0.88143 0.13526 0.25000 0.07400
C 	C 	0.61857 0.63526 0.25000 0.01300
C 	C 	0.38143 0.63526 0.75000 0.05100
C 	C 	0.38143 0.36474 0.75000 0.05100
C 	C 	0.61857 0.36474 0.25000 0.01300
C 	C 	0.88143 0.86474 0.25000 0.08000
C 	C 	0.11857 0.86474 0.75000 -0.00300
C 	C 	0.36857 0.50000 0.88526 0.09300
C 	C 	0.86857 0.00000 0.38526 0.11000
C 	C 	0.13143 0.00000 0.61474 -0.05100
C 	C 	0.23470 0.50000 0.03658 0.07900
C 	C 	0.23470 0.50000 0.46342 0.15800
C 	C 	0.76530 0.50000 0.53658 0.19700
C 	C 	0.73470 0.00000 0.96342 0.24100
C 	C 	0.26530 0.00000 0.03658 0.08400
C 	C 	0.51530 0.21342 0.75000 0.17700
C 	C 	0.48470 0.21342 0.25000 0.17700
C 	C 	0.01530 0.71342 0.25000 -0.12800
C 	C 	0.98470 0.71342 0.75000 0.46000
C 	C 	0.98470 0.28658 0.75000 0.45900
C 	C 	0.01530 0.28658 0.25000 -0.12600
C 	C 	0.48470 0.78658 0.25000 0.17800
C 	C 	0.51530 0.78658 0.75000 0.17800
C 	C 	0.76530 0.50000 0.96342 0.27400
C 	C 	0.26530 0.00000 0.46342 0.16000
C 	C 	0.73470 0.00000 0.53658 0.16500
C 	C 	0.49306 0.50000 0.08734 -0.09000
C 	C 	0.49306 0.50000 0.41266 -0.07900
C 	C 	0.50694 0.50000 0.58734 -0.07400
C 	C 	0.99306 0.00000 0.91266 0.00400
C 	C 	0.00694 0.00000 0.08734 -0.18700
C 	C 	0.25694 0.16266 0.75000 -0.07200
C 	C 	0.74306 0.16266 0.25000 -0.08100
C 	C 	0.75694 0.66266 0.25000 0.01100
C 	C 	0.24306 0.66266 0.75000 -0.15800
C 	C 	0.24306 0.33734 0.75000 -0.15700
C 	C 	0.75694 0.33734 0.25000 0.01000
C 	C 	0.74306 0.83734 0.25000 -0.08200
C 	C 	0.25694 0.83734 0.75000 -0.07300
C 	C 	0.50694 0.50000 0.91266 -0.06400
C 	C 	0.00694 0.00000 0.41266 -0.17600
C 	C 	0.99306 0.00000 0.58734 -0.00100
O 	O 	0.12500 0.25996 0.00996 -1.04600
O 	O 	0.12500 0.74004 0.49004 -0.94500
O 	O 	0.87500 0.74004 0.50996 -0.88400
O 	O 	0.62500 0.24004 0.99004 -0.80800
O 	O 	0.37500 0.24004 0.00996 -1.01800
O 	O 	0.87500 0.25996 0.99004 -0.78100
O 	O 	0.37500 0.75996 0.49004 -0.91700
O 	O 	0.62500 0.75996 0.50996 -0.91400
O 	O 	0.87500 0.74004 0.99004 -0.78000
O 	O 	0.87500 0.25996 0.50996 -0.88400
O 	O 	0.12500 0.25996 0.49004 -0.94500
O 	O 	0.37500 0.75996 0.00996 -1.01800
O 	O 	0.62500 0.75996 0.99004 -0.80800
O 	O 	0.12500 0.74004 0.00996 -1.04700
O 	O 	0.62500 0.24004 0.50996 -0.91400
O 	O 	0.37500 0.24004 0.49004 -0.91700
O 	O 	0.13185 0.38146 0.01131 -0.76400
O 	O 	0.13185 0.61854 0.48869 -0.66300
O 	O 	0.86815 0.61854 0.51131 -0.60500
O 	O 	0.63185 0.11854 0.98869 -0.52800
O 	O 	0.36815 0.11854 0.01131 -0.73700
O 	O 	0.61815 0.23869 0.86854 -0.62100
O 	O 	0.38185 0.23869 0.13146 -0.64800
O 	O 	0.11815 0.73869 0.36854 -0.57700
O 	O 	0.88185 0.73869 0.63146 -0.69000
O 	O 	0.88185 0.26131 0.86854 -0.67800
O 	O 	0.11815 0.26131 0.13146 -0.58600
O 	O 	0.38185 0.76131 0.36854 -0.63900
O 	O 	0.61815 0.76131 0.63146 -0.63200
O 	O 	0.86815 0.38146 0.98869 -0.50200
O 	O 	0.36815 0.88146 0.48869 -0.63300
O 	O 	0.63185 0.88146 0.51131 -0.62900
O 	O 	0.86815 0.61854 0.98869 -0.50200
O 	O 	0.86815 0.38146 0.51131 -0.60500
O 	O 	0.13185 0.38146 0.48869 -0.66300
O 	O 	0.36815 0.88146 0.01131 -0.73400
O 	O 	0.63185 0.88146 0.98869 -0.52400
O 	O 	0.38185 0.76131 0.13146 -0.64800
O 	O 	0.61815 0.76131 0.86854 -0.62100
O 	O 	0.88185 0.26131 0.63146 -0.69000
O 	O 	0.11815 0.26131 0.36854 -0.57700
O 	O 	0.11815 0.73869 0.13146 -0.58500
O 	O 	0.88185 0.73869 0.86854 -0.67800
O 	O 	0.61815 0.23869 0.63146 -0.63200
O 	O 	0.38185 0.23869 0.36854 -0.63900
O 	O 	0.13185 0.61854 0.01131 -0.76500
O 	O 	0.63185 0.11854 0.51131 -0.63300
O 	O 	0.36815 0.11854 0.48869 -0.63700
O 	O 	0.28420 0.33663 0.06896 -0.65400
O 	O 	0.28420 0.66337 0.43104 -0.63100
O 	O 	0.71580 0.66337 0.56896 -0.62400
O 	O 	0.78420 0.16337 0.93104 -0.59100
O 	O 	0.21580 0.16337 0.06896 -0.66500
O 	O 	0.46580 0.18104 0.91337 -0.55100
O 	O 	0.53420 0.18104 0.08663 -0.69800
O 	O 	0.96580 0.68104 0.41337 -0.49500
O 	O 	0.03420 0.68104 0.58663 -0.75300
O 	O 	0.03420 0.31896 0.91337 -0.66900
O 	O 	0.96580 0.31896 0.08663 -0.56300
O 	O 	0.53420 0.81896 0.41337 -0.62500
O 	O 	0.46580 0.81896 0.58663 -0.62800
O 	O 	0.71580 0.33663 0.93104 -0.60100
O 	O 	0.21580 0.83663 0.43104 -0.64200
O 	O 	0.78420 0.83663 0.56896 -0.61200
O 	O 	0.71580 0.66337 0.93104 -0.60100
O 	O 	0.71580 0.33663 0.56896 -0.62400
O 	O 	0.28420 0.33663 0.43104 -0.63100
O 	O 	0.21580 0.83663 0.06896 -0.66400
O 	O 	0.78420 0.83663 0.93104 -0.59000
O 	O 	0.53420 0.81896 0.08663 -0.69700
O 	O 	0.46580 0.81896 0.91337 -0.55000
O 	O 	0.03420 0.31896 0.58663 -0.75200
O 	O 	0.96580 0.31896 0.41337 -0.49500
O 	O 	0.96580 0.68104 0.08663 -0.56300
O 	O 	0.03420 0.68104 0.91337 -0.66900
O 	O 	0.46580 0.18104 0.58663 -0.62900
O 	O 	0.53420 0.18104 0.41337 -0.62600
O 	O 	0.28420 0.66337 0.06896 -0.65400
O 	O 	0.78420 0.16337 0.56896 -0.61300
O 	O 	0.21580 0.16337 0.43104 -0.64300
