data_crystal

_cell_length_a 10.56980
_cell_length_b 16.00230
_cell_length_c 16.00230
_cell_angle_alpha 83.73820
_cell_angle_beta  70.71550
_cell_angle_gamma 70.71550

_symmetry_space_group_name_	'P 1'
_symmetry_space_group_name_H-M	'P 1'

loop_
_symmetry_equiv_pos_as_xyz
  x,y,z

loop_
_atom_site_label
_atom_site_type_symbol
_atom_site_fract_x
_atom_site_fract_y
_atom_site_fract_z
_atom_site_charge
Al	Al	0.76272 0.69264 0.17386 2.40000
Al	Al	0.12922 0.80736 0.32614 2.40000
Al	Al	0.93658 0.82614 0.19264 2.39900
Al	Al	0.45536 0.67386 0.30736 2.40000
Al	Al	0.23728 0.30736 0.82614 2.40000
Al	Al	0.87078 0.19264 0.67386 2.40000
Al	Al	0.06342 0.17386 0.80736 2.40000
Al	Al	0.54464 0.32614 0.69264 2.40100
C 	C 	0.84607 0.40894 0.49766 -0.16200
C 	C 	0.94651 0.50762 0.34980 0.07300
C 	C 	0.79490 0.34810 0.57044 0.54700
C 	C 	0.27845 0.38382 0.39748 0.11900
C 	C 	0.98607 0.40012 0.46528 0.07900
C 	C 	0.74363 0.46823 0.45831 0.14900
C 	C 	0.71952 0.58082 0.33006 0.50700
C 	C 	0.80190 0.51235 0.38733 -0.15000
C 	C 	0.03810 0.45247 0.39209 0.05700
C 	C 	0.25267 0.09106 0.00234 -0.16000
C 	C 	0.30393 0.99238 0.15020 0.07500
C 	C 	0.21344 0.15190 0.92956 0.54500
C 	C 	0.55975 0.11618 0.10252 0.11900
C 	C 	0.35147 0.09988 0.03472 0.07800
C 	C 	0.17017 0.03177 0.04169 0.14500
C 	C 	0.13040 0.91918 0.16994 0.50600
C 	C 	0.20158 0.98765 0.11267 -0.14500
C 	C 	0.38266 0.04753 0.10791 0.05500
C 	C 	0.34373 0.50234 0.90894 -0.16200
C 	C 	0.29631 0.65020 0.00762 0.07400
C 	C 	0.36534 0.42956 0.84810 0.54700
C 	C 	0.67593 0.60252 0.88382 0.12000
C 	C 	0.45135 0.53472 0.90012 0.07900
C 	C 	0.20194 0.54169 0.96823 0.14500
C 	C 	0.04958 0.66994 0.08082 0.51200
C 	C 	0.18923 0.61267 0.01235 -0.14700
C 	C 	0.43019 0.60791 0.95247 0.05400
C 	C 	0.25501 0.99766 0.59106 -0.16000
C 	C 	0.45413 0.84980 0.49238 0.07400
C 	C 	0.14300 0.07044 0.65190 0.54500
C 	C 	0.66227 0.89748 0.61618 0.11900
C 	C 	0.38619 0.96528 0.59988 0.07900
C 	C 	0.21186 0.95831 0.53177 0.15000
C 	C 	0.30034 0.83006 0.41918 0.50700
C 	C 	0.31425 0.88733 0.48765 -0.15000
C 	C 	0.49057 0.89209 0.54753 0.05600
C 	C 	0.15393 0.59106 0.50234 -0.16200
C 	C 	0.05349 0.49238 0.65020 0.07300
C 	C 	0.20510 0.65190 0.42956 0.54700
C 	C 	0.72155 0.61618 0.60252 0.11900
C 	C 	0.01393 0.59988 0.53472 0.07900
C 	C 	0.25637 0.53177 0.54169 0.14900
C 	C 	0.28048 0.41918 0.66994 0.50700
C 	C 	0.19810 0.48765 0.61267 -0.15000
C 	C 	0.96190 0.54753 0.60791 0.05700
C 	C 	0.74733 0.90894 0.99766 -0.16000
C 	C 	0.69607 0.00762 0.84980 0.07500
C 	C 	0.78656 0.84810 0.07044 0.54500
C 	C 	0.44025 0.88382 0.89748 0.11900
C 	C 	0.64853 0.90012 0.96528 0.07800
C 	C 	0.82983 0.96823 0.95831 0.14500
C 	C 	0.86960 0.08082 0.83006 0.50600
C 	C 	0.79842 0.01235 0.88733 -0.14500
C 	C 	0.61734 0.95247 0.89209 0.05500
C 	C 	0.65627 0.49766 0.09106 -0.16200
C 	C 	0.70369 0.34980 0.99238 0.07400
C 	C 	0.63466 0.57044 0.15190 0.54700
C 	C 	0.32407 0.39748 0.11618 0.12000
C 	C 	0.54865 0.46528 0.09988 0.07900
C 	C 	0.79806 0.45831 0.03177 0.14500
C 	C 	0.95042 0.33006 0.91918 0.51200
C 	C 	0.81077 0.38733 0.98765 -0.14700
C 	C 	0.56981 0.39209 0.04753 0.05400
C 	C 	0.74499 0.00234 0.40894 -0.16000
C 	C 	0.54587 0.15020 0.50762 0.07400
C 	C 	0.85700 0.92956 0.34810 0.54500
C 	C 	0.33773 0.10252 0.38382 0.11900
C 	C 	0.61381 0.03472 0.40012 0.07900
C 	C 	0.78814 0.04169 0.46823 0.15000
C 	C 	0.69966 0.16994 0.58082 0.50700
C 	C 	0.68575 0.11267 0.51235 -0.15000
C 	C 	0.50943 0.10791 0.45247 0.05600
O 	O 	0.88300 0.28155 0.59059 -0.69000
O 	O 	0.78440 0.60471 0.25445 -0.70700
O 	O 	0.58838 0.60627 0.37217 -0.58300
O 	O 	0.67007 0.38657 0.61611 -0.62700
O 	O 	0.57608 0.73715 0.23867 -0.83300
O 	O 	0.18645 0.43633 0.35105 -0.17800
O 	O 	0.25514 0.21845 0.90941 -0.69200
O 	O 	0.14356 0.89529 0.24555 -0.70500
O 	O 	0.06682 0.89373 0.12783 -0.58000
O 	O 	0.17275 0.11343 0.88389 -0.62900
O 	O 	0.05190 0.76285 0.26133 -0.83100
O 	O 	0.47383 0.06367 0.14895 -0.17800
O 	O 	0.47359 0.40941 0.78155 -0.69100
O 	O 	0.03885 0.74555 0.10471 -0.70600
O 	O 	0.96055 0.62783 0.10627 -0.58800
O 	O 	0.28618 0.38389 0.88657 -0.62700
O 	O 	0.81475 0.76133 0.23715 -0.83400
O 	O 	0.53750 0.64895 0.93633 -0.17800
O 	O 	0.16455 0.09059 0.71845 -0.69300
O 	O 	0.38911 0.75445 0.39529 -0.70700
O 	O 	0.19465 0.87217 0.39373 -0.58200
O 	O 	0.05664 0.11611 0.61343 -0.62900
O 	O 	0.31323 0.73867 0.26285 -0.83300
O 	O 	0.62278 0.85105 0.56367 -0.17800
O 	O 	0.11700 0.71845 0.40941 -0.69000
O 	O 	0.21560 0.39529 0.74555 -0.70700
O 	O 	0.41162 0.39373 0.62783 -0.58300
O 	O 	0.32993 0.61343 0.38389 -0.62700
O 	O 	0.42392 0.26285 0.76133 -0.83300
O 	O 	0.81355 0.56367 0.64895 -0.17800
O 	O 	0.74486 0.78155 0.09059 -0.69200
O 	O 	0.85644 0.10471 0.75445 -0.70500
O 	O 	0.93318 0.10627 0.87217 -0.58000
O 	O 	0.82725 0.88657 0.11611 -0.62900
O 	O 	0.94810 0.23715 0.73867 -0.83100
O 	O 	0.52617 0.93633 0.85105 -0.17800
O 	O 	0.52641 0.59059 0.21845 -0.69100
O 	O 	0.96115 0.25445 0.89529 -0.70600
O 	O 	0.03945 0.37217 0.89373 -0.58800
O 	O 	0.71382 0.61611 0.11343 -0.62700
O 	O 	0.18525 0.23867 0.76285 -0.83400
O 	O 	0.46250 0.35105 0.06367 -0.17800
O 	O 	0.83545 0.90941 0.28155 -0.69300
O 	O 	0.61089 0.24555 0.60471 -0.70700
O 	O 	0.80535 0.12783 0.60627 -0.58200
O 	O 	0.94336 0.88389 0.38657 -0.62900
O 	O 	0.68677 0.26133 0.73715 -0.83300
O 	O 	0.37722 0.14895 0.43633 -0.17800
