data_crystal

_cell_length_a 6.70050
_cell_length_b 15.65290
_cell_length_c 15.65290
_cell_angle_alpha 120.00000
_cell_angle_beta  90.00000
_cell_angle_gamma 90.00000

_symmetry_space_group_name_	'P 1'
_symmetry_space_group_name_H-M	'P 1'

loop_
_symmetry_equiv_pos_as_xyz
  x,y,z

loop_
_atom_site_label
_atom_site_type_symbol
_atom_site_fract_x
_atom_site_fract_y
_atom_site_fract_z
_atom_site_charge
B 	B 	0.25000 0.05772 0.11543 1.34700
B 	B 	0.75000 0.94228 0.88457 1.34700
B 	B 	0.25000 0.88457 0.94229 1.34700
B 	B 	0.75000 0.11543 0.05771 1.34700
B 	B 	0.25000 0.05771 0.94228 1.34300
B 	B 	0.75000 0.94229 0.05772 1.34300
B 	B 	0.25000 0.44466 0.72233 1.13600
B 	B 	0.75000 0.55534 0.27767 1.13600
B 	B 	0.25000 0.27767 0.72233 1.13600
B 	B 	0.75000 0.72233 0.27767 1.13600
B 	B 	0.25000 0.27767 0.55534 1.13600
B 	B 	0.75000 0.72233 0.44466 1.13600
H 	H 	0.25000 0.57703 0.92773 0.00700
H 	H 	0.75000 0.42297 0.07227 0.00700
H 	H 	0.25000 0.07227 0.64930 0.00700
H 	H 	0.75000 0.92773 0.35070 0.00700
H 	H 	0.25000 0.35070 0.42297 0.00700
H 	H 	0.75000 0.64930 0.57703 0.00700
H 	H 	0.75000 0.92773 0.57703 0.00700
H 	H 	0.25000 0.07227 0.42297 0.00700
H 	H 	0.75000 0.64930 0.07227 0.00700
H 	H 	0.25000 0.35070 0.92773 0.00700
H 	H 	0.75000 0.42297 0.35070 0.00700
H 	H 	0.25000 0.57703 0.64930 0.00700
H 	H 	0.75000 0.02045 0.76181 -0.01800
H 	H 	0.25000 0.97955 0.23819 -0.01800
H 	H 	0.75000 0.23819 0.25864 -0.02100
H 	H 	0.25000 0.76181 0.74136 -0.02100
H 	H 	0.75000 0.74136 0.97955 -0.01800
H 	H 	0.25000 0.25864 0.02045 -0.01800
H 	H 	0.25000 0.76181 0.02045 -0.01800
H 	H 	0.75000 0.23819 0.97955 -0.01800
H 	H 	0.25000 0.25864 0.23819 -0.02100
H 	H 	0.75000 0.74136 0.76181 -0.02100
H 	H 	0.25000 0.97955 0.74136 -0.01800
H 	H 	0.75000 0.02045 0.25864 -0.01800
C 	C 	0.25000 0.11184 0.38361 0.02300
C 	C 	0.75000 0.88816 0.61639 0.02300
C 	C 	0.25000 0.61639 0.72823 0.02200
C 	C 	0.75000 0.38361 0.27177 0.02200
C 	C 	0.25000 0.27177 0.88816 0.02300
C 	C 	0.75000 0.72823 0.11184 0.02300
C 	C 	0.75000 0.38361 0.11184 0.02300
C 	C 	0.25000 0.61639 0.88816 0.02300
C 	C 	0.75000 0.72823 0.61639 0.02200
C 	C 	0.25000 0.27177 0.38361 0.02200
C 	C 	0.75000 0.88816 0.27177 0.02300
C 	C 	0.25000 0.11184 0.72823 0.02300
C 	C 	0.25000 0.21864 0.43728 -0.40500
C 	C 	0.75000 0.78136 0.56272 -0.40500
C 	C 	0.25000 0.56272 0.78136 -0.40500
C 	C 	0.75000 0.43728 0.21864 -0.40500
C 	C 	0.25000 0.21864 0.78136 -0.40600
C 	C 	0.75000 0.78136 0.21864 -0.40600
C 	C 	0.25000 0.21837 0.27685 0.14000
C 	C 	0.75000 0.78163 0.72315 0.14000
C 	C 	0.25000 0.72315 0.94152 0.13700
C 	C 	0.75000 0.27685 0.05848 0.13700
C 	C 	0.25000 0.05848 0.78163 0.13600
C 	C 	0.75000 0.94152 0.21837 0.13600
C 	C 	0.75000 0.27685 0.21837 0.14000
C 	C 	0.25000 0.72315 0.78163 0.14000
C 	C 	0.75000 0.94152 0.72315 0.13700
C 	C 	0.25000 0.05848 0.27685 0.13700
C 	C 	0.75000 0.78163 0.05848 0.13600
C 	C 	0.25000 0.21837 0.94152 0.13600
C 	C 	0.25000 0.11030 0.88970 -0.65400
C 	C 	0.75000 0.88970 0.11030 -0.65400
C 	C 	0.25000 0.11030 0.22060 -0.65500
C 	C 	0.75000 0.88970 0.77940 -0.65500
C 	C 	0.25000 0.77940 0.88970 -0.65500
C 	C 	0.75000 0.22060 0.11030 -0.65500
O 	O 	0.25000 0.11133 0.05567 -0.90600
O 	O 	0.75000 0.88867 0.94433 -0.90600
O 	O 	0.25000 0.94433 0.05566 -0.90400
O 	O 	0.75000 0.05567 0.94434 -0.90400
O 	O 	0.25000 0.94434 0.88867 -0.90600
O 	O 	0.75000 0.05566 0.11133 -0.90600
O 	O 	0.25000 0.38900 0.77800 -0.81300
O 	O 	0.75000 0.61100 0.22200 -0.81300
O 	O 	0.25000 0.22200 0.61100 -0.81300
O 	O 	0.75000 0.77800 0.38900 -0.81300
O 	O 	0.25000 0.38900 0.61100 -0.81300
O 	O 	0.75000 0.61100 0.38900 -0.81300
