data_crystal

_cell_length_a 8.87900
_cell_length_b 20.37830
_cell_length_c 20.37830
_cell_angle_alpha 87.27970
_cell_angle_beta  77.41690
_cell_angle_gamma 77.41690

_symmetry_space_group_name_	'P 1'
_symmetry_space_group_name_H-M	'P 1'

loop_
_symmetry_equiv_pos_as_xyz
  x,y,z

loop_
_atom_site_label
_atom_site_type_symbol
_atom_site_fract_x
_atom_site_fract_y
_atom_site_fract_z
_atom_site_charge
H 	H 	0.38590 0.12110 0.01530 0.03600
H 	H 	0.61410 0.87890 0.98470 0.03600
H 	H 	0.52230 0.37890 0.48470 0.03700
H 	H 	0.47770 0.62110 0.51530 0.03700
H 	H 	0.00700 0.01530 0.37890 0.03700
H 	H 	0.99300 0.98470 0.62110 0.03700
H 	H 	0.40120 0.48470 0.12110 0.03700
H 	H 	0.59880 0.51530 0.87890 0.03700
H 	H 	0.58740 0.14800 0.93940 0.02400
H 	H 	0.41260 0.85200 0.06060 0.02400
H 	H 	0.67480 0.35200 0.56060 0.02400
H 	H 	0.32520 0.64800 0.43940 0.02400
H 	H 	0.23540 0.93940 0.35200 0.02400
H 	H 	0.76460 0.06060 0.64800 0.02400
H 	H 	0.52680 0.56060 0.14800 0.02400
H 	H 	0.47320 0.43940 0.85200 0.02400
H 	H 	0.73660 0.96070 0.92450 0.04900
H 	H 	0.26340 0.03930 0.07550 0.04900
H 	H 	0.62180 0.53930 0.57550 0.04900
H 	H 	0.37820 0.46070 0.42450 0.04900
H 	H 	0.19730 0.92450 0.53930 0.04900
H 	H 	0.80270 0.07550 0.46070 0.04900
H 	H 	0.66110 0.57550 0.96070 0.04900
H 	H 	0.33890 0.42450 0.03930 0.04900
H 	H 	0.98530 0.04450 0.78570 0.05400
H 	H 	0.01470 0.95550 0.21430 0.05400
H 	H 	0.81550 0.45550 0.71430 0.05400
H 	H 	0.18450 0.54450 0.28570 0.05400
H 	H 	0.52980 0.78570 0.45550 0.05400
H 	H 	0.47020 0.21430 0.54450 0.05400
H 	H 	0.77100 0.71430 0.04450 0.05400
H 	H 	0.22900 0.28570 0.95550 0.05400
H 	H 	0.13590 0.11450 0.72490 0.03800
H 	H 	0.86410 0.88550 0.27510 0.03800
H 	H 	0.97530 0.38550 0.77510 0.03800
H 	H 	0.02470 0.61450 0.22490 0.03800
H 	H 	0.75040 0.72490 0.38550 0.03800
H 	H 	0.24960 0.27510 0.61450 0.03800
H 	H 	0.86080 0.77510 0.11450 0.03800
H 	H 	0.13920 0.22490 0.88550 0.03800
H 	H 	0.89260 0.28040 0.85520 0.03700
H 	H 	0.10740 0.71960 0.14480 0.03700
H 	H 	0.02820 0.21960 0.64480 0.03700
H 	H 	0.97180 0.78040 0.35520 0.03700
H 	H 	0.67300 0.85520 0.21960 0.03700
H 	H 	0.32700 0.14480 0.78040 0.03700
H 	H 	0.74780 0.64480 0.28040 0.03700
H 	H 	0.25220 0.35520 0.71960 0.03700
H 	H 	0.74170 0.20990 0.91530 0.05400
H 	H 	0.25830 0.79010 0.08470 0.05400
H 	H 	0.86690 0.29010 0.58470 0.05400
H 	H 	0.13310 0.70990 0.41530 0.05400
H 	H 	0.45160 0.91530 0.29010 0.05400
H 	H 	0.54840 0.08470 0.70990 0.05400
H 	H 	0.65700 0.58470 0.20990 0.05400
H 	H 	0.34300 0.41530 0.79010 0.05400
C 	C 	0.87500 0.75000 0.25000 -0.02600
C 	C 	0.12500 0.25000 0.75000 -0.02600
C 	C 	0.43690 0.06830 0.00810 -0.04300
C 	C 	0.56310 0.93170 0.99190 -0.04300
C 	C 	0.51330 0.43170 0.49190 -0.04300
C 	C 	0.48670 0.56830 0.50810 -0.04300
C 	C 	0.00520 0.00810 0.43170 -0.04400
C 	C 	0.99480 0.99190 0.56830 -0.04400
C 	C 	0.44500 0.49190 0.06830 -0.04300
C 	C 	0.55500 0.50810 0.93170 -0.04300
C 	C 	0.57090 0.04760 0.96500 0.01500
C 	C 	0.42910 0.95240 0.03500 0.01500
C 	C 	0.58350 0.45240 0.53500 0.01500
C 	C 	0.41650 0.54760 0.46500 0.01500
C 	C 	0.11850 0.96500 0.45240 0.01500
C 	C 	0.88150 0.03500 0.54760 0.01500
C 	C 	0.53590 0.53500 0.04760 0.01500
C 	C 	0.46410 0.46500 0.95240 0.01500
C 	C 	0.63950 0.09560 0.93160 0.01900
C 	C 	0.36050 0.90440 0.06840 0.01900
C 	C 	0.66670 0.40440 0.56840 0.01900
C 	C 	0.33330 0.59560 0.43160 0.01900
C 	C 	0.23510 0.93160 0.40440 0.01900
C 	C 	0.76490 0.06840 0.59560 0.01900
C 	C 	0.57110 0.56840 0.09560 0.01900
C 	C 	0.42890 0.43160 0.90440 0.01900
C 	C 	0.63330 0.97870 0.95730 -0.04100
C 	C 	0.36670 0.02130 0.04270 -0.04100
C 	C 	0.56930 0.52130 0.54270 -0.04100
C 	C 	0.43070 0.47870 0.45730 -0.04100
C 	C 	0.11200 0.95730 0.52130 -0.04100
C 	C 	0.88800 0.04270 0.47870 -0.04100
C 	C 	0.59060 0.54270 0.97870 -0.04100
C 	C 	0.40940 0.45730 0.02130 -0.04100
C 	C 	0.85270 0.12140 0.85480 0.10100
C 	C 	0.14730 0.87860 0.14520 0.10100
C 	C 	0.82890 0.37860 0.64520 0.10100
C 	C 	0.17110 0.62140 0.35480 0.10100
C 	C 	0.47410 0.85480 0.37860 0.10100
C 	C 	0.52590 0.14520 0.62140 0.10100
C 	C 	0.70750 0.64520 0.12140 0.10100
C 	C 	0.29250 0.35480 0.87860 0.10100
C 	C 	0.96610 0.09580 0.80160 -0.08100
C 	C 	0.03390 0.90420 0.19840 -0.08100
C 	C 	0.86350 0.40420 0.69840 -0.08200
C 	C 	0.13650 0.59580 0.30160 -0.08200
C 	C 	0.56190 0.80160 0.40420 -0.08200
C 	C 	0.43810 0.19840 0.59580 -0.08200
C 	C 	0.76770 0.69840 0.09580 -0.08200
C 	C 	0.23230 0.30160 0.90420 -0.08200
C 	C 	0.05430 0.13600 0.76760 -0.02600
C 	C 	0.94570 0.86400 0.23240 -0.02600
C 	C 	0.95790 0.36400 0.73240 -0.02500
C 	C 	0.04210 0.63600 0.26760 -0.02500
C 	C 	0.69030 0.76760 0.36400 -0.02600
C 	C 	0.30970 0.23240 0.63600 -0.02600
C 	C 	0.82190 0.73240 0.13600 -0.02600
C 	C 	0.17810 0.26760 0.86400 -0.02600
C 	C 	0.03430 0.20260 0.78800 0.00600
C 	C 	0.96570 0.79740 0.21200 0.00600
C 	C 	0.02490 0.29740 0.71200 0.00600
C 	C 	0.97510 0.70260 0.28800 0.00600
C 	C 	0.73690 0.78800 0.29740 0.00600
C 	C 	0.26310 0.21200 0.70260 0.00600
C 	C 	0.82230 0.71200 0.20260 0.00600
C 	C 	0.17770 0.28800 0.79740 0.00600
C 	C 	0.91590 0.22860 0.84000 -0.01900
C 	C 	0.08410 0.77140 0.16000 -0.01900
C 	C 	0.98450 0.27140 0.66000 -0.01900
C 	C 	0.01550 0.72860 0.34000 -0.01900
C 	C 	0.64450 0.84000 0.27140 -0.02000
C 	C 	0.35550 0.16000 0.72860 -0.02000
C 	C 	0.75590 0.66000 0.22860 -0.02000
C 	C 	0.24410 0.34000 0.77140 -0.02000
C 	C 	0.82770 0.18850 0.87370 -0.08600
C 	C 	0.17230 0.81150 0.12630 -0.08600
C 	C 	0.88990 0.31150 0.62630 -0.08600
C 	C 	0.11010 0.68850 0.37370 -0.08600
C 	C 	0.51620 0.87370 0.31150 -0.08600
C 	C 	0.48380 0.12630 0.68850 -0.08600
C 	C 	0.70140 0.62630 0.18850 -0.08600
C 	C 	0.29860 0.37370 0.81150 -0.08600
N 	N 	0.76830 0.07730 0.88930 -0.13000
N 	N 	0.23170 0.92270 0.11070 -0.13000
N 	N 	0.73490 0.42270 0.61070 -0.13000
N 	N 	0.26510 0.57730 0.38930 -0.13000
N 	N 	0.34560 0.88930 0.42270 -0.13000
N 	N 	0.65440 0.11070 0.57730 -0.13000
N 	N 	0.65760 0.61070 0.07730 -0.13000
N 	N 	0.34240 0.38930 0.92270 -0.13000
