data_crystal

_cell_length_a 3.40400
_cell_length_b 30.01980
_cell_length_c 30.01980
_cell_angle_alpha 120.00000
_cell_angle_beta  90.00000
_cell_angle_gamma 90.00000

_symmetry_space_group_name_	'P 1'
_symmetry_space_group_name_H-M	'P 1'

loop_
_symmetry_equiv_pos_as_xyz
  x,y,z

loop_
_atom_site_label
_atom_site_type_symbol
_atom_site_fract_x
_atom_site_fract_y
_atom_site_fract_z
_atom_site_charge
B 	B 	0.50000 0.11357 0.55679 1.13300
B 	B 	0.50000 0.88643 0.44321 1.13300
B 	B 	0.50000 0.44321 0.55678 1.13300
B 	B 	0.50000 0.55679 0.44322 1.13300
B 	B 	0.50000 0.44322 0.88643 1.13300
B 	B 	0.50000 0.55678 0.11357 1.13300
H 	H 	0.50000 0.45252 0.40508 0.00100
H 	H 	0.50000 0.54748 0.59492 0.00100
H 	H 	0.50000 0.59492 0.04744 0.00100
H 	H 	0.50000 0.40508 0.95256 0.00100
H 	H 	0.50000 0.95256 0.54748 0.00100
H 	H 	0.50000 0.04744 0.45252 0.00100
H 	H 	0.50000 0.40508 0.45252 0.00100
H 	H 	0.50000 0.59492 0.54748 0.00100
H 	H 	0.50000 0.04744 0.59492 0.00100
H 	H 	0.50000 0.95256 0.40508 0.00100
H 	H 	0.50000 0.54748 0.95256 0.00100
H 	H 	0.50000 0.45252 0.04744 0.00100
H 	H 	0.50000 0.53659 0.29828 0.06900
H 	H 	0.50000 0.46341 0.70172 0.06900
H 	H 	0.50000 0.70172 0.23831 0.06900
H 	H 	0.50000 0.29828 0.76169 0.06900
H 	H 	0.50000 0.76169 0.46341 0.06900
H 	H 	0.50000 0.23831 0.53659 0.06900
H 	H 	0.50000 0.29828 0.53659 0.06900
H 	H 	0.50000 0.70172 0.46341 0.06900
H 	H 	0.50000 0.23831 0.70172 0.06900
H 	H 	0.50000 0.76169 0.29828 0.06900
H 	H 	0.50000 0.46341 0.76169 0.06900
H 	H 	0.50000 0.53659 0.23831 0.06900
C 	C 	0.50000 0.94617 0.47308 -0.47400
C 	C 	0.50000 0.05383 0.52692 -0.47400
C 	C 	0.50000 0.52692 0.47309 -0.47400
C 	C 	0.50000 0.47308 0.52691 -0.47400
C 	C 	0.50000 0.52691 0.05383 -0.47400
C 	C 	0.50000 0.47309 0.94617 -0.47400
C 	C 	0.50000 0.47312 0.02688 0.08300
C 	C 	0.50000 0.52688 0.97312 0.08300
C 	C 	0.50000 0.97312 0.44624 0.08300
C 	C 	0.50000 0.02688 0.55376 0.08300
C 	C 	0.50000 0.55376 0.52688 0.08300
C 	C 	0.50000 0.44624 0.47312 0.08300
C 	C 	0.50000 0.02688 0.47312 0.08300
C 	C 	0.50000 0.97312 0.52688 0.08300
C 	C 	0.50000 0.44624 0.97312 0.08300
C 	C 	0.50000 0.55376 0.02688 0.08300
C 	C 	0.50000 0.52688 0.55376 0.08300
C 	C 	0.50000 0.47312 0.44624 0.08300
C 	C 	0.50000 0.61950 0.19328 0.09300
C 	C 	0.50000 0.38050 0.80672 0.09300
C 	C 	0.50000 0.80672 0.42622 0.09300
C 	C 	0.50000 0.19328 0.57378 0.09300
C 	C 	0.50000 0.57378 0.38050 0.09300
C 	C 	0.50000 0.42622 0.61950 0.09300
C 	C 	0.50000 0.19328 0.61950 0.09300
C 	C 	0.50000 0.80672 0.38050 0.09300
C 	C 	0.50000 0.42622 0.80672 0.09300
C 	C 	0.50000 0.57378 0.19328 0.09300
C 	C 	0.50000 0.38050 0.57378 0.09300
C 	C 	0.50000 0.61950 0.42622 0.09300
C 	C 	0.50000 0.66667 0.23896 -0.07600
C 	C 	0.50000 0.33333 0.76104 -0.07600
C 	C 	0.50000 0.76104 0.42771 -0.07600
C 	C 	0.50000 0.23896 0.57229 -0.07600
C 	C 	0.50000 0.57229 0.33333 -0.07600
C 	C 	0.50000 0.42771 0.66667 -0.07600
C 	C 	0.50000 0.23896 0.66667 -0.07600
C 	C 	0.50000 0.76104 0.33333 -0.07600
C 	C 	0.50000 0.42771 0.76104 -0.07600
C 	C 	0.50000 0.57229 0.23896 -0.07600
C 	C 	0.50000 0.33333 0.57229 -0.07600
C 	C 	0.50000 0.66667 0.42771 -0.07600
C 	C 	0.50000 0.66667 0.28621 0.00800
C 	C 	0.50000 0.33333 0.71379 0.00800
C 	C 	0.50000 0.71379 0.38046 0.00800
C 	C 	0.50000 0.28621 0.61954 0.00800
C 	C 	0.50000 0.61954 0.33333 0.00800
C 	C 	0.50000 0.38046 0.66667 0.00800
C 	C 	0.50000 0.28621 0.66667 0.00800
C 	C 	0.50000 0.71379 0.33333 0.00800
C 	C 	0.50000 0.38046 0.71379 0.00800
C 	C 	0.50000 0.61954 0.28621 0.00800
C 	C 	0.50000 0.33333 0.61954 0.00800
C 	C 	0.50000 0.66667 0.38046 0.00800
O 	O 	0.50000 0.61305 0.14429 -0.50700
O 	O 	0.50000 0.38695 0.85571 -0.50700
O 	O 	0.50000 0.85571 0.46876 -0.50700
O 	O 	0.50000 0.14429 0.53124 -0.50700
O 	O 	0.50000 0.53124 0.38695 -0.50700
O 	O 	0.50000 0.46876 0.61305 -0.50700
O 	O 	0.50000 0.14429 0.61305 -0.50800
O 	O 	0.50000 0.85571 0.38695 -0.50800
O 	O 	0.50000 0.46876 0.85571 -0.50800
O 	O 	0.50000 0.53124 0.14429 -0.50800
O 	O 	0.50000 0.38695 0.53124 -0.50800
O 	O 	0.50000 0.61305 0.46876 -0.50800
