data_crystal

_cell_length_a 8.66800
_cell_length_b 9.18600
_cell_length_c 17.55800
_cell_angle_alpha 90.00000
_cell_angle_beta  90.00000
_cell_angle_gamma 107.75000

_symmetry_space_group_name_	'P 1'
_symmetry_space_group_name_H-M	'P 1'

loop_
_symmetry_equiv_pos_as_xyz
  x,y,z

loop_
_atom_site_label
_atom_site_type_symbol
_atom_site_fract_x
_atom_site_fract_y
_atom_site_fract_z
_atom_site_charge
Al	Al	0.91670 0.71500 0.70270 2.39500
Al	Al	0.85730 0.84490 0.88870 2.39600
Al	Al	0.46420 0.81960 0.67640 2.39600
Al	Al	0.58330 0.78500 0.20270 2.39700
Al	Al	0.64270 0.65510 0.38870 2.39700
Al	Al	0.03580 0.68040 0.17640 2.39600
Al	Al	0.08330 0.28500 0.29730 2.39600
Al	Al	0.14270 0.15510 0.11130 2.39700
Al	Al	0.53580 0.18040 0.32360 2.39600
Al	Al	0.41670 0.21500 0.79730 2.39700
Al	Al	0.35730 0.34490 0.61130 2.39700
Al	Al	0.96420 0.31960 0.82360 2.39600
P 	P 	0.64030 0.65250 0.57420 0.83100
P 	P 	0.18360 0.53460 0.70560 0.78100
P 	P 	0.72470 0.51040 0.83050 0.72600
P 	P 	0.85970 0.84750 0.07420 0.82100
P 	P 	0.31640 0.96540 0.20560 0.77700
P 	P 	0.77530 0.98960 0.33050 0.71500
P 	P 	0.35970 0.34750 0.42580 0.83100
P 	P 	0.81640 0.46540 0.29440 0.78100
P 	P 	0.27530 0.48960 0.16950 0.72600
P 	P 	0.14030 0.15250 0.92580 0.82100
P 	P 	0.68360 0.03460 0.79440 0.77700
P 	P 	0.22470 0.01040 0.66950 0.71500
O 	O 	0.95170 0.81920 0.79340 -0.91300
O 	O 	0.79650 0.70660 0.61930 -0.70700
O 	O 	0.74830 0.56170 0.74740 -0.70200
O 	O 	0.04740 0.59940 0.68690 -0.74100
O 	O 	0.56070 0.39080 0.84230 -0.59300
O 	O 	0.53480 0.75410 0.59470 -0.78000
O 	O 	0.13540 0.42390 0.77260 -0.79600
O 	O 	0.85860 0.44130 0.85430 -0.78200
O 	O 	0.33690 0.66570 0.72740 -0.77700
O 	O 	0.73420 0.64450 0.88370 -0.65300
O 	O 	0.54830 0.48860 0.59390 -0.72100
O 	O 	0.68400 0.67280 0.49100 -0.65000
O 	O 	0.22050 0.44960 0.63710 -0.72100
O 	O 	0.54830 0.68080 0.29340 -0.90600
O 	O 	0.70350 0.79340 0.11930 -0.70300
O 	O 	0.75170 0.93830 0.24740 -0.70100
O 	O 	0.45260 0.90060 0.18690 -0.74800
O 	O 	0.93930 0.10920 0.34230 -0.58100
O 	O 	0.96520 0.74590 0.09470 -0.77400
O 	O 	0.36460 0.07610 0.27260 -0.79900
O 	O 	0.64140 0.05870 0.35430 -0.77300
O 	O 	0.16310 0.83430 0.22740 -0.78100
O 	O 	0.76580 0.85550 0.38370 -0.65100
O 	O 	0.95170 0.01140 0.09390 -0.70100
O 	O 	0.81600 0.82720 0.99100 -0.65400
O 	O 	0.27950 0.05040 0.13710 -0.72100
O 	O 	0.04830 0.18080 0.20660 -0.91300
O 	O 	0.20350 0.29340 0.38070 -0.70700
O 	O 	0.25170 0.43830 0.25260 -0.70200
O 	O 	0.95260 0.40060 0.31310 -0.74100
O 	O 	0.43930 0.60920 0.15770 -0.59300
O 	O 	0.46520 0.24590 0.40530 -0.78000
O 	O 	0.86460 0.57610 0.22740 -0.79600
O 	O 	0.14140 0.55870 0.14570 -0.78200
O 	O 	0.66310 0.33430 0.27260 -0.77700
O 	O 	0.26580 0.35550 0.11630 -0.65300
O 	O 	0.45170 0.51140 0.40610 -0.72100
O 	O 	0.31600 0.32720 0.50900 -0.65000
O 	O 	0.77950 0.55040 0.36290 -0.72100
O 	O 	0.45170 0.31920 0.70660 -0.90600
O 	O 	0.29650 0.20660 0.88070 -0.70300
O 	O 	0.24830 0.06170 0.75260 -0.70100
O 	O 	0.54740 0.09940 0.81310 -0.74800
O 	O 	0.06070 0.89080 0.65770 -0.58100
O 	O 	0.03480 0.25410 0.90530 -0.77400
O 	O 	0.63540 0.92390 0.72740 -0.79900
O 	O 	0.35860 0.94130 0.64570 -0.77300
O 	O 	0.83690 0.16570 0.77260 -0.78100
O 	O 	0.23420 0.14450 0.61630 -0.65100
O 	O 	0.04830 0.98860 0.90610 -0.70100
O 	O 	0.18400 0.17280 0.00900 -0.65400
O 	O 	0.72050 0.94960 0.86290 -0.72100
