data_crystal

_cell_length_a 8.32070
_cell_length_b 13.11200
_cell_length_c 13.42530
_cell_angle_alpha 71.71600
_cell_angle_beta  79.75800
_cell_angle_gamma 88.05500

_symmetry_space_group_name_	'P 1'
_symmetry_space_group_name_H-M	'P 1'

loop_
_symmetry_equiv_pos_as_xyz
  x,y,z

loop_
_atom_site_label
_atom_site_type_symbol
_atom_site_fract_x
_atom_site_fract_y
_atom_site_fract_z
_atom_site_charge
Zn	Zn	0.77437 0.63699 0.36084 1.21800
Zn	Zn	0.22563 0.36301 0.63916 1.19800
Zn	Zn	-0.00000 0.00000 -0.00000 1.08800
H 	H 	0.83410 0.51800 0.21220 -0.00900
H 	H 	0.88400 0.34670 0.20290 0.08000
H 	H 	0.73120 0.23090 0.52130 0.10500
H 	H 	0.67850 0.40480 0.52190 -0.02700
H 	H 	0.94190 0.16320 0.29350 0.06700
H 	H 	0.75250 0.13120 0.33420 0.04900
H 	H 	0.80760 0.95120 0.41570 0.05400
H 	H 	0.99710 0.98050 0.36810 0.09000
H 	H 	0.13110 0.11700 0.41040 0.04000
H 	H 	0.03180 0.17980 0.48590 0.04900
H 	H 	0.59400 0.77240 0.48230 -0.00600
H 	H 	0.54770 0.78960 0.65140 0.09800
H 	H 	0.83110 0.53250 0.74550 0.11800
H 	H 	0.87180 0.52260 0.57430 -0.00700
H 	H 	0.56030 0.72170 0.83420 0.09900
H 	H 	0.75020 0.70480 0.84010 0.11000
H 	H 	0.37530 0.56660 0.89510 0.07100
H 	H 	0.49180 0.50380 0.82640 0.05600
H 	H 	0.67210 0.62050 0.02820 0.06500
H 	H 	0.48370 0.63670 0.01660 0.04900
H 	H 	0.57520 0.90130 0.11680 0.11500
H 	H 	0.51460 0.80720 0.07940 0.11400
H 	H 	0.35280 0.85380 0.26710 0.05400
H 	H 	0.31220 0.67570 0.26850 0.13700
H 	H 	0.24750 0.71950 0.15810 0.12200
H 	H 	0.16590 0.48200 0.78780 -0.01600
H 	H 	0.11600 0.65330 0.79710 0.08100
H 	H 	0.26880 0.76910 0.47870 0.10300
H 	H 	0.32150 0.59520 0.47810 -0.02700
H 	H 	0.05810 0.83680 0.70650 0.06900
H 	H 	0.24750 0.86880 0.66580 0.08700
H 	H 	0.19240 0.04880 0.58430 0.04000
H 	H 	0.00290 0.01950 0.63190 0.03200
H 	H 	0.86890 0.88300 0.58960 0.06800
H 	H 	0.96820 0.82020 0.51410 0.06600
H 	H 	0.40600 0.22760 0.51770 -0.01300
H 	H 	0.45230 0.21040 0.34860 0.07300
H 	H 	0.16890 0.46750 0.25450 0.08300
H 	H 	0.12820 0.47740 0.42570 -0.02400
H 	H 	0.43970 0.27830 0.16580 0.04900
H 	H 	0.24980 0.29520 0.15990 0.04000
H 	H 	0.62470 0.43340 0.10490 0.02600
H 	H 	0.50820 0.49620 0.17360 0.03900
H 	H 	0.32790 0.37950 0.97180 0.04500
H 	H 	0.51630 0.36330 0.98340 0.04700
H 	H 	0.42480 0.09870 0.88320 0.12700
H 	H 	0.48540 0.19280 0.92060 0.15600
H 	H 	0.64720 0.14620 0.73290 0.01400
H 	H 	0.68780 0.32430 0.73150 0.15300
H 	H 	0.75250 0.28050 0.84190 0.15600
C 	C 	0.81210 0.45880 0.27579 0.09600
C 	C 	0.84340 0.35685 0.26979 -0.17100
C 	C 	0.81550 0.26882 0.36162 0.14200
C 	C 	0.75290 0.28871 0.45652 -0.17700
C 	C 	0.72250 0.39275 0.45629 0.10500
C 	C 	0.84950 0.15783 0.35274 -0.14800
C 	C 	0.91050 0.97395 0.43086 -0.01700
C 	C 	0.04330 0.10945 0.47279 -0.10200
C 	C 	0.64210 0.72301 0.53666 0.09800
C 	C 	0.61410 0.73367 0.63732 -0.18900
C 	C 	0.68320 0.66249 0.71792 0.15800
C 	C 	0.78090 0.58258 0.69267 -0.18800
C 	C 	0.80410 0.57699 0.59072 0.10600
C 	C 	0.65200 0.67261 0.82839 -0.18500
C 	C 	0.46860 0.51757 0.89598 -0.08200
C 	C 	0.57570 0.58687 0.01597 -0.14900
C 	C 	0.62530 0.75083 0.21104 0.36100
C 	C 	0.52080 0.82951 0.14258 -0.31200
C 	C 	0.34680 0.83904 0.19916 0.01900
C 	C 	0.25130 0.73434 0.22559 -0.32900
C 	C 	0.07840 0.73047 0.28536 0.39600
C 	C 	0.26790 0.93470 0.12708 0.39400
C 	C 	0.18790 0.54120 0.72421 0.08000
C 	C 	0.15660 0.64315 0.73021 -0.18300
C 	C 	0.18450 0.73118 0.63838 0.13100
C 	C 	0.24710 0.71129 0.54348 -0.18600
C 	C 	0.27750 0.60725 0.54371 0.09400
C 	C 	0.15050 0.84217 0.64726 -0.16400
C 	C 	0.08950 0.02605 0.56914 -0.10800
C 	C 	0.95670 0.89055 0.52721 -0.01900
C 	C 	0.35790 0.27699 0.46334 0.08000
C 	C 	0.38590 0.26633 0.36268 -0.16800
C 	C 	0.31680 0.33751 0.28208 0.11400
C 	C 	0.21910 0.41742 0.30733 -0.17100
C 	C 	0.19590 0.42301 0.40928 0.08100
C 	C 	0.34800 0.32739 0.17161 -0.13800
C 	C 	0.53140 0.48243 0.10402 -0.02600
C 	C 	0.42430 0.41313 0.98403 0.02500
C 	C 	0.37470 0.24917 0.78896 0.37700
C 	C 	0.47920 0.17049 0.85742 -0.37400
C 	C 	0.65320 0.16096 0.80084 0.11300
C 	C 	0.74870 0.26566 0.77441 -0.37600
C 	C 	0.92160 0.26953 0.71464 0.41000
C 	C 	0.73210 0.06530 0.87292 0.20800
N 	N 	0.75210 0.47815 0.36745 -0.26500
N 	N 	0.88870 0.07907 0.44947 -0.08100
N 	N 	0.73510 0.64515 0.51293 -0.27100
N 	N 	0.61270 0.56867 0.91158 -0.03000
N 	N 	0.24790 0.52185 0.63255 -0.27300
N 	N 	0.11130 0.92093 0.55053 -0.06500
N 	N 	0.26490 0.35485 0.48707 -0.27700
N 	N 	0.38730 0.43133 0.08842 -0.12800
O 	O 	0.74636 0.71227 0.16768 -0.37700
O 	O 	0.58935 0.72749 0.31208 -0.45900
O 	O 	0.01024 0.63705 0.31773 -0.51100
O 	O 	0.00937 0.81085 0.30077 -0.37800
O 	O 	0.18361 0.91482 0.06593 -0.51000
O 	O 	0.29648 0.02672 0.13089 -0.41300
O 	O 	0.25364 0.28773 0.83232 -0.39500
O 	O 	0.41065 0.27251 0.68792 -0.47600
O 	O 	0.98976 0.36295 0.68227 -0.45300
O 	O 	0.99063 0.18915 0.69923 -0.32700
O 	O 	0.81639 0.08518 0.93407 -0.41600
O 	O 	0.70352 0.97328 0.86911 -0.19200
