data_crystal

_cell_length_a 7.54500
_cell_length_b 9.68500
_cell_length_c 13.94300
_cell_angle_alpha 81.67800
_cell_angle_beta  76.87700
_cell_angle_gamma 80.70600

_symmetry_space_group_name_	'P 1'
_symmetry_space_group_name_H-M	'P 1'

loop_
_symmetry_equiv_pos_as_xyz
  x,y,z

loop_
_atom_site_label
_atom_site_type_symbol
_atom_site_fract_x
_atom_site_fract_y
_atom_site_fract_z
_atom_site_charge
Zn	Zn	0.77241 0.40863 0.49591 1.24000
Zn	Zn	0.22759 0.59137 0.50409 1.24000
H 	H 	0.11520 0.73200 0.21570 0.00700
H 	H 	0.49440 0.75700 0.21400 0.11900
H 	H 	0.03540 0.57090 0.82310 0.00800
H 	H 	0.01300 0.80380 0.06840 0.12000
H 	H 	0.84310 0.97010 0.72900 0.02100
H 	H 	0.88430 0.60580 0.98510 0.12100
H 	H 	0.69520 0.00690 0.89150 0.13700
H 	H 	0.88480 0.26800 0.78430 0.00700
H 	H 	0.50560 0.24300 0.78600 0.11900
H 	H 	0.96460 0.42910 0.17690 0.00800
H 	H 	0.98700 0.19620 0.93160 0.12000
H 	H 	0.15690 0.02990 0.27100 0.02100
H 	H 	0.11570 0.39420 0.01490 0.12100
H 	H 	0.30480 0.99310 0.10850 0.13700
C 	C 	0.77610 0.80920 0.95196 0.27900
C 	C 	0.53060 0.70380 0.39564 0.27800
C 	C 	0.93780 0.65960 0.39701 0.40100
C 	C 	0.67940 0.71820 0.30371 0.06400
C 	C 	0.04350 0.74390 0.65580 0.35600
C 	C 	0.86650 0.70670 0.30445 -0.14800
C 	C 	0.98820 0.73860 0.21595 0.12700
C 	C 	0.95360 0.76700 0.76062 -0.15700
C 	C 	0.62040 0.75410 0.21498 -0.19100
C 	C 	0.96560 0.65930 0.83690 0.13000
C 	C 	0.74430 0.78550 0.12837 0.26200
C 	C 	0.92850 0.77980 0.12804 -0.23800
C 	C 	0.85190 0.89630 0.78125 0.12800
C 	C 	0.87660 0.67970 0.93280 -0.25000
C 	C 	0.76350 0.91830 0.87724 -0.24100
C 	C 	0.22390 0.19080 0.04804 0.27900
C 	C 	0.46940 0.29620 0.60436 0.27800
C 	C 	0.06220 0.34040 0.60299 0.40100
C 	C 	0.32060 0.28180 0.69629 0.06400
C 	C 	0.95650 0.25610 0.34420 0.35600
C 	C 	0.13350 0.29330 0.69555 -0.14800
C 	C 	0.01180 0.26140 0.78405 0.12700
C 	C 	0.04640 0.23300 0.23938 -0.15700
C 	C 	0.37960 0.24590 0.78502 -0.19100
C 	C 	0.03440 0.34070 0.16310 0.13000
C 	C 	0.25570 0.21450 0.87163 0.26200
C 	C 	0.07150 0.22020 0.87196 -0.23800
C 	C 	0.14810 0.10370 0.21875 0.12800
C 	C 	0.12340 0.32030 0.06720 -0.25000
C 	C 	0.23650 0.08170 0.12276 -0.24100
O 	O 	0.83340 0.60795 0.47307 -0.45400
O 	O 	0.46570 0.80724 0.44196 -0.24500
O 	O 	0.01890 0.83848 0.58783 -0.26700
O 	O 	0.46820 0.58701 0.41482 -0.43700
O 	O 	0.14240 0.62660 0.64172 -0.44000
O 	O 	0.10200 0.67329 0.39353 -0.43700
O 	O 	0.67120 0.83280 0.04514 -0.29300
O 	O 	0.16660 0.39205 0.52693 -0.45400
O 	O 	0.53430 0.19276 0.55804 -0.24500
O 	O 	0.98110 0.16152 0.41217 -0.26700
O 	O 	0.53180 0.41299 0.58518 -0.43700
O 	O 	0.85760 0.37340 0.35828 -0.44000
O 	O 	0.89800 0.32671 0.60647 -0.43700
O 	O 	0.32880 0.16720 0.95486 -0.29300
