data_crystal

_cell_length_a 12.10600
_cell_length_b 12.11800
_cell_length_c 13.72070
_cell_angle_alpha 81.03720
_cell_angle_beta  63.82260
_cell_angle_gamma 69.32000

_symmetry_space_group_name_	'P 1'
_symmetry_space_group_name_H-M	'P 1'

loop_
_symmetry_equiv_pos_as_xyz
  x,y,z

loop_
_atom_site_label
_atom_site_type_symbol
_atom_site_fract_x
_atom_site_fract_y
_atom_site_fract_z
_atom_site_charge
Fe	Fe	-0.00000 0.00000 -0.00000 1.02600
Fe	Fe	0.10403 0.25705 -0.00000 1.02800
Fe	Fe	0.89597 0.74295 -0.00000 1.08200
H 	H 	0.33720 0.91260 0.57200 0.04200
H 	H 	0.51230 0.12600 0.60460 0.05200
H 	H 	0.09080 0.08740 0.57200 0.13800
H 	H 	0.88310 0.87400 0.60460 0.14700
H 	H 	0.66280 0.08740 0.42800 0.08600
H 	H 	0.48770 0.87400 0.39540 0.07200
H 	H 	0.90920 0.91260 0.42800 -0.01500
H 	H 	0.11690 0.12600 0.39540 -0.02500
H 	H 	0.52950 0.30180 -0.00000 0.02400
H 	H 	0.66290 0.55830 -0.00000 0.02700
H 	H 	0.47050 0.69820 -0.00000 0.03000
H 	H 	0.33710 0.44170 -0.00000 0.01400
C 	C 	0.40410 0.94770 0.54320 0.03500
C 	C 	0.40910 0.01830 0.60880 -0.05500
C 	C 	0.50810 0.07410 0.56200 0.01100
C 	C 	0.31710 0.04330 0.72220 0.12200
C 	C 	0.05270 0.05230 0.54320 -0.33100
C 	C 	0.98210 0.98170 0.60880 0.24300
C 	C 	0.92990 0.92590 0.56200 -0.24100
C 	C 	0.96070 0.95670 0.72220 0.07900
C 	C 	0.59590 0.05230 0.45680 -0.10700
C 	C 	0.59090 0.98170 0.39120 0.05400
C 	C 	0.49190 0.92590 0.43800 -0.08300
C 	C 	0.68290 0.95670 0.27780 0.12000
C 	C 	0.94730 0.94770 0.45680 0.26000
C 	C 	0.01790 0.01830 0.39120 -0.24800
C 	C 	0.07010 0.07410 0.43800 0.16600
C 	C 	0.03930 0.04330 0.27780 0.14400
C 	C 	0.51890 0.38330 -0.00000 -0.05300
C 	C 	0.61440 0.41460 -0.00000 -0.01800
C 	C 	0.59710 0.53290 -0.00000 -0.04800
C 	C 	0.73660 0.33240 -0.00000 0.10400
C 	C 	0.48110 0.61670 -0.00000 -0.05000
C 	C 	0.38560 0.58540 -0.00000 -0.02300
C 	C 	0.40290 0.46710 -0.00000 -0.04700
C 	C 	0.26340 0.66760 -0.00000 0.09800
C 	C 	0.03180 0.50000 0.93640 0.31900
C 	C 	0.96820 0.50000 0.06360 0.12700
N 	N 	0.23800 0.97990 0.78040 -0.05900
N 	N 	0.16362 0.03580 0.87716 -0.13000
N 	N 	0.20140 0.12510 0.87560 -0.12200
N 	N 	0.29460 0.13540 0.78000 -0.08600
N 	N 	0.98160 0.02010 0.78040 -0.05600
N 	N 	0.95922 0.96420 0.87716 -0.08900
N 	N 	0.92300 0.87490 0.87560 -0.10900
N 	N 	0.92540 0.86460 0.78000 -0.06400
N 	N 	0.76200 0.02010 0.21960 -0.10100
N 	N 	0.83638 0.96420 0.12284 -0.14600
N 	N 	0.79860 0.87490 0.12440 -0.17500
N 	N 	0.70540 0.86460 0.22000 -0.10000
N 	N 	0.01840 0.97990 0.21960 -0.08800
N 	N 	0.04078 0.03580 0.12284 -0.20500
N 	N 	0.07700 0.12510 0.12440 -0.19700
N 	N 	0.07460 0.13540 0.22000 -0.12400
N 	N 	0.76940 0.21200 -0.00000 -0.11800
N 	N 	0.88760 0.17570 -0.00000 -0.17400
N 	N 	0.92140 0.26480 -0.00000 -0.15300
N 	N 	0.82960 0.36450 -0.00000 -0.11100
N 	N 	0.23060 0.78800 -0.00000 -0.11400
N 	N 	0.11240 0.82430 -0.00000 -0.19200
N 	N 	0.07860 0.73520 -0.00000 -0.19400
N 	N 	0.17040 0.63550 -0.00000 -0.12800
O 	O 	0.10611 0.40280 0.88918 -0.31000
O 	O 	0.00471 0.59720 0.88918 -0.32800
O 	O 	0.89389 0.59720 0.11082 -0.32700
O 	O 	0.99529 0.40280 0.11082 -0.30600
