data_crystal

_cell_length_a 7.89510
_cell_length_b 10.32710
_cell_length_c 10.54070
_cell_angle_alpha 109.81900
_cell_angle_beta  90.00000
_cell_angle_gamma 90.00000

_symmetry_space_group_name_	'P 1'
_symmetry_space_group_name_H-M	'P 1'

loop_
_symmetry_equiv_pos_as_xyz
  x,y,z

loop_
_atom_site_label
_atom_site_type_symbol
_atom_site_fract_x
_atom_site_fract_y
_atom_site_fract_z
_atom_site_charge
Al	Al	0.57020 0.29070 0.68060 2.38700
Al	Al	0.57020 0.20930 0.31940 2.38800
Al	Al	0.42980 0.70930 0.31940 2.38800
Al	Al	0.42980 0.79070 0.68060 2.38700
Al	Al	0.50000 0.00000 -0.00000 2.36300
Al	Al	0.50000 0.50000 -0.00000 2.37200
P 	P 	0.69150 0.03481 0.75370 0.35600
P 	P 	0.69150 0.46519 0.24630 0.51600
P 	P 	0.30850 0.96519 0.24630 0.69200
P 	P 	0.30850 0.53481 0.75370 0.51700
C 	C 	0.89740 0.96220 0.76430 0.13700
C 	C 	0.01730 0.07230 0.84100 -0.00300
C 	C 	0.19130 0.01320 0.84190 0.36200
C 	C 	0.89740 0.53780 0.23570 -0.10000
C 	C 	0.01730 0.42770 0.15900 -0.18600
C 	C 	0.19130 0.48680 0.15810 0.58100
C 	C 	0.10260 0.03780 0.23570 -0.23300
C 	C 	0.98270 0.92770 0.15900 -0.14400
C 	C 	0.80870 0.98680 0.15810 0.74500
C 	C 	0.10260 0.46220 0.76430 0.02200
C 	C 	0.98270 0.57230 0.84100 0.02600
C 	C 	0.80870 0.51320 0.84190 0.51700
O 	O 	0.60960 0.08720 0.89380 -0.46600
O 	O 	0.71530 0.15400 0.69740 -0.60100
O 	O 	0.58310 0.91910 0.65330 -0.60900
O 	O 	0.25100 0.93120 0.73640 -0.51300
O 	O 	0.27420 0.04920 0.94760 -0.41200
O 	O 	0.50320 0.83330 0.86240 -0.71800
O 	O 	0.60960 0.41280 0.10620 -0.76800
O 	O 	0.71530 0.34600 0.30260 -0.62900
O 	O 	0.58310 0.58090 0.34670 -0.70200
O 	O 	0.25100 0.56880 0.26360 -0.68300
O 	O 	0.27420 0.45080 0.05240 -0.83600
O 	O 	0.50320 0.66670 0.13760 -1.01100
O 	O 	0.39040 0.91280 0.10620 -0.73000
O 	O 	0.28470 0.84600 0.30260 -0.61100
O 	O 	0.41690 0.08090 0.34670 -0.80300
O 	O 	0.74900 0.06880 0.26360 -0.82900
O 	O 	0.72580 0.95080 0.05240 -0.82400
O 	O 	0.49680 0.16670 0.13760 -1.05000
O 	O 	0.39040 0.58720 0.89380 -0.44000
O 	O 	0.28470 0.65400 0.69740 -0.58400
O 	O 	0.41690 0.41910 0.65330 -0.70300
O 	O 	0.74900 0.43120 0.73640 -0.65100
O 	O 	0.72580 0.54920 0.94760 -0.41100
O 	O 	0.49680 0.33330 0.86240 -0.75000
O 	O 	0.64740 0.25000 0.50000 -0.89100
O 	O 	0.35260 0.75000 0.50000 -0.86500
