data_crystal

_cell_length_a 14.21600
_cell_length_b 14.44700
_cell_length_c 27.86500
_cell_angle_alpha 90.00000
_cell_angle_beta  90.00000
_cell_angle_gamma 90.00000

_symmetry_space_group_name_	'P 1'
_symmetry_space_group_name_H-M	'P 1'

loop_
_symmetry_equiv_pos_as_xyz
  x,y,z

loop_
_atom_site_label
_atom_site_type_symbol
_atom_site_fract_x
_atom_site_fract_y
_atom_site_fract_z
_atom_site_charge
Zn	Zn	0.20947 0.10007 0.09855 1.15400
Zn	Zn	0.21308 0.48353 0.84502 1.21000
Zn	Zn	0.29053 0.89993 0.59855 1.15500
Zn	Zn	0.28692 0.51647 0.34502 1.21000
Zn	Zn	0.79053 0.60007 0.40145 1.15500
Zn	Zn	0.78692 0.98353 0.65498 1.21000
Zn	Zn	0.70947 0.39993 0.90145 1.15400
Zn	Zn	0.71308 0.01647 0.15498 1.21000
Zn	Zn	0.79053 0.89993 0.90145 1.15300
Zn	Zn	0.78692 0.51647 0.15498 1.20900
Zn	Zn	0.70947 0.10007 0.40145 1.15400
Zn	Zn	0.71308 0.48353 0.65498 1.20900
Zn	Zn	0.20947 0.39993 0.59855 1.15400
Zn	Zn	0.21308 0.01647 0.34502 1.20900
Zn	Zn	0.29053 0.60007 0.09855 1.15300
Zn	Zn	0.28692 0.98353 0.84502 1.20900
H 	H 	0.21290 0.28180 0.85210 0.00600
H 	H 	0.20000 0.35520 0.01130 0.04200
H 	H 	0.19340 0.46720 0.95320 0.01500
H 	H 	0.91700 0.05340 0.13940 0.01000
H 	H 	0.90250 0.05470 0.30360 0.02700
H 	H 	0.76980 0.03700 0.25780 0.02000
H 	H 	0.28710 0.71820 0.35210 0.00600
H 	H 	0.30000 0.64480 0.51130 0.04300
H 	H 	0.30660 0.53280 0.45320 0.01400
H 	H 	0.58300 0.94660 0.63940 0.01000
H 	H 	0.59750 0.94530 0.80360 0.02700
H 	H 	0.73020 0.96300 0.75780 0.02000
H 	H 	0.78710 0.78180 0.64790 0.00600
H 	H 	0.80000 0.85520 0.48870 0.04300
H 	H 	0.80660 0.96720 0.54680 0.01400
H 	H 	0.08300 0.55340 0.36060 0.01000
H 	H 	0.09750 0.55470 0.19640 0.02600
H 	H 	0.23020 0.53700 0.24220 0.02000
H 	H 	0.71290 0.21820 0.14790 0.00600
H 	H 	0.70000 0.14480 0.98870 0.04500
H 	H 	0.69340 0.03280 0.04680 0.01300
H 	H 	0.41700 0.44660 0.86060 0.01000
H 	H 	0.40250 0.44530 0.69640 0.02700
H 	H 	0.26980 0.46300 0.74220 0.02000
H 	H 	0.78710 0.71820 0.14790 0.00600
H 	H 	0.80000 0.64480 0.98870 0.04200
H 	H 	0.80660 0.53280 0.04680 0.01500
H 	H 	0.08300 0.94660 0.86060 0.01000
H 	H 	0.09750 0.94530 0.69640 0.02700
H 	H 	0.23020 0.96300 0.74220 0.02000
H 	H 	0.71290 0.28180 0.64790 0.00600
H 	H 	0.70000 0.35520 0.48870 0.04300
H 	H 	0.69340 0.46720 0.54680 0.01400
H 	H 	0.41700 0.05340 0.36060 0.01000
H 	H 	0.40250 0.05470 0.19640 0.02700
H 	H 	0.26980 0.03700 0.24220 0.02000
H 	H 	0.21290 0.21820 0.35210 0.00600
H 	H 	0.20000 0.14480 0.51130 0.04300
H 	H 	0.19340 0.03280 0.45320 0.01400
H 	H 	0.91700 0.44660 0.63940 0.01000
H 	H 	0.90250 0.44530 0.80360 0.02600
H 	H 	0.76980 0.46300 0.75780 0.02000
H 	H 	0.28710 0.78180 0.85210 0.00600
H 	H 	0.30000 0.85520 0.01130 0.04500
H 	H 	0.30660 0.96720 0.95320 0.01300
H 	H 	0.58300 0.55340 0.13940 0.01000
H 	H 	0.59750 0.55470 0.30360 0.02700
H 	H 	0.73020 0.53700 0.25780 0.02000
C 	C 	0.21120 0.29660 0.88460 0.05500
C 	C 	0.21650 0.22470 0.91780 -0.07900
C 	C 	0.21560 0.24750 0.96670 -0.01800
C 	C 	0.20450 0.33850 0.97910 -0.06500
C 	C 	0.19970 0.40560 0.94400 0.03500
C 	C 	0.22070 0.12640 0.89970 0.33900
C 	C 	0.23660 0.17470 0.00470 0.32500
C 	C 	0.91460 0.05330 0.17280 0.05700
C 	C 	0.99800 0.06500 0.19820 -0.07600
C 	C 	0.99460 0.06490 0.24840 -0.01800
C 	C 	0.90720 0.05440 0.27030 -0.05400
C 	C 	0.82760 0.04350 0.24260 0.02500
C 	C 	0.08880 0.06980 0.17080 0.32000
C 	C 	0.08210 0.07940 0.27830 0.32000
C 	C 	0.28880 0.70340 0.38460 0.05500
C 	C 	0.28350 0.77530 0.41780 -0.07800
C 	C 	0.28440 0.75250 0.46670 -0.02000
C 	C 	0.29550 0.66150 0.47910 -0.06700
C 	C 	0.30030 0.59440 0.44400 0.03600
C 	C 	0.27930 0.87360 0.39970 0.33900
C 	C 	0.26340 0.82530 0.50470 0.32900
C 	C 	0.58540 0.94670 0.67280 0.05700
C 	C 	0.50200 0.93500 0.69820 -0.07600
C 	C 	0.50540 0.93510 0.74840 -0.01800
C 	C 	0.59280 0.94560 0.77030 -0.05400
C 	C 	0.67240 0.95650 0.74260 0.02500
C 	C 	0.41120 0.93020 0.67080 0.32100
C 	C 	0.41790 0.92060 0.77830 0.32100
C 	C 	0.78880 0.79660 0.61540 0.05500
C 	C 	0.78350 0.72470 0.58220 -0.07800
C 	C 	0.78440 0.74750 0.53330 -0.02000
C 	C 	0.79550 0.83850 0.52090 -0.06700
C 	C 	0.80030 0.90560 0.55600 0.03600
C 	C 	0.77930 0.62640 0.60030 0.33900
C 	C 	0.76340 0.67470 0.49530 0.32900
C 	C 	0.08540 0.55330 0.32720 0.05700
C 	C 	0.00200 0.56500 0.30180 -0.07600
C 	C 	0.00540 0.56490 0.25160 -0.01900
C 	C 	0.09280 0.55440 0.22970 -0.05300
C 	C 	0.17240 0.54350 0.25740 0.02500
C 	C 	0.91120 0.56980 0.32920 0.32100
C 	C 	0.91790 0.57940 0.22170 0.32100
C 	C 	0.71120 0.20340 0.11540 0.05500
C 	C 	0.71650 0.27530 0.08220 -0.07900
C 	C 	0.71560 0.25250 0.03330 -0.01900
C 	C 	0.70450 0.16150 0.02090 -0.07000
C 	C 	0.69970 0.09440 0.05600 0.03700
C 	C 	0.72070 0.37360 0.10030 0.33900
C 	C 	0.73660 0.32530 0.99530 0.32900
C 	C 	0.41460 0.44670 0.82720 0.05700
C 	C 	0.49800 0.43500 0.80180 -0.07600
C 	C 	0.49460 0.43510 0.75160 -0.01800
C 	C 	0.40720 0.44560 0.72970 -0.05400
C 	C 	0.32760 0.45650 0.75740 0.02500
C 	C 	0.58880 0.43020 0.82920 0.32100
C 	C 	0.58210 0.42060 0.72170 0.32100
C 	C 	0.78880 0.70340 0.11540 0.05500
C 	C 	0.78350 0.77530 0.08220 -0.07900
C 	C 	0.78440 0.75250 0.03330 -0.01800
C 	C 	0.79550 0.66150 0.02090 -0.06500
C 	C 	0.80030 0.59440 0.05600 0.03500
C 	C 	0.77930 0.87360 0.10030 0.33900
C 	C 	0.76340 0.82530 0.99530 0.32500
C 	C 	0.08540 0.94670 0.82720 0.05700
C 	C 	0.00200 0.93500 0.80180 -0.07600
C 	C 	0.00540 0.93510 0.75160 -0.01800
C 	C 	0.09280 0.94560 0.72970 -0.05400
C 	C 	0.17240 0.95650 0.75740 0.02500
C 	C 	0.91120 0.93020 0.82920 0.32000
C 	C 	0.91790 0.92060 0.72170 0.32000
C 	C 	0.71120 0.29660 0.61540 0.05500
C 	C 	0.71650 0.22470 0.58220 -0.07800
C 	C 	0.71560 0.24750 0.53330 -0.02000
C 	C 	0.70450 0.33850 0.52090 -0.06700
C 	C 	0.69970 0.40560 0.55600 0.03600
C 	C 	0.72070 0.12640 0.60030 0.33900
C 	C 	0.73660 0.17470 0.49530 0.32900
C 	C 	0.41460 0.05330 0.32720 0.05700
C 	C 	0.49800 0.06500 0.30180 -0.07600
C 	C 	0.49460 0.06490 0.25160 -0.01800
C 	C 	0.40720 0.05440 0.22970 -0.05400
C 	C 	0.32760 0.04350 0.25740 0.02500
C 	C 	0.58880 0.06980 0.32920 0.32100
C 	C 	0.58210 0.07940 0.22170 0.32100
C 	C 	0.21120 0.20340 0.38460 0.05500
C 	C 	0.21650 0.27530 0.41780 -0.07800
C 	C 	0.21560 0.25250 0.46670 -0.02000
C 	C 	0.20450 0.16150 0.47910 -0.06700
C 	C 	0.19970 0.09440 0.44400 0.03600
C 	C 	0.22070 0.37360 0.39970 0.33900
C 	C 	0.23660 0.32530 0.50470 0.32900
C 	C 	0.91460 0.44670 0.67280 0.05700
C 	C 	0.99800 0.43500 0.69820 -0.07600
C 	C 	0.99460 0.43510 0.74840 -0.01900
C 	C 	0.90720 0.44560 0.77030 -0.05300
C 	C 	0.82760 0.45650 0.74260 0.02500
C 	C 	0.08880 0.43020 0.67080 0.32100
C 	C 	0.08210 0.42060 0.77830 0.32100
C 	C 	0.28880 0.79660 0.88460 0.05500
C 	C 	0.28350 0.72470 0.91780 -0.07900
C 	C 	0.28440 0.74750 0.96670 -0.01900
C 	C 	0.29550 0.83850 0.97910 -0.07000
C 	C 	0.30030 0.90560 0.94400 0.03700
C 	C 	0.27930 0.62640 0.89970 0.33900
C 	C 	0.26340 0.67470 0.00470 0.32900
C 	C 	0.58540 0.55330 0.17280 0.05700
C 	C 	0.50200 0.56500 0.19820 -0.07600
C 	C 	0.50540 0.56490 0.24840 -0.01800
C 	C 	0.59280 0.55440 0.27030 -0.05400
C 	C 	0.67240 0.54350 0.24260 0.02500
C 	C 	0.41120 0.56980 0.17080 0.32100
C 	C 	0.41790 0.57940 0.27830 0.32100
N 	N 	0.20390 0.38550 0.89700 -0.25900
N 	N 	0.83070 0.04180 0.19419 -0.25300
N 	N 	0.29610 0.61450 0.39700 -0.25900
N 	N 	0.66930 0.95820 0.69419 -0.25300
N 	N 	0.79610 0.88550 0.60300 -0.26000
N 	N 	0.16930 0.54180 0.30581 -0.25300
N 	N 	0.70390 0.11450 0.10300 -0.26000
N 	N 	0.33070 0.45820 0.80581 -0.25300
N 	N 	0.79610 0.61450 0.10300 -0.25900
N 	N 	0.16930 0.95820 0.80581 -0.25300
N 	N 	0.70390 0.38550 0.60300 -0.25900
N 	N 	0.33070 0.04180 0.30581 -0.25300
N 	N 	0.20390 0.11450 0.39700 -0.26000
N 	N 	0.83070 0.45820 0.69419 -0.25300
N 	N 	0.29610 0.88550 0.89700 -0.26000
N 	N 	0.66930 0.54180 0.19419 -0.25300
O 	O 	0.28610 0.10940 0.86980 -0.44800
O 	O 	0.16140 0.07070 0.91352 -0.31500
O 	O 	0.29610 0.11600 0.99614 -0.32400
O 	O 	0.18950 0.18320 0.04277 -0.48100
O 	O 	0.10130 0.01000 0.30533 -0.44900
O 	O 	0.12470 0.15190 0.27655 -0.30600
O 	O 	0.15830 0.02670 0.18566 -0.35500
O 	O 	0.08820 0.11910 0.13311 -0.45900
O 	O 	0.21390 0.89060 0.36980 -0.44800
O 	O 	0.33860 0.92930 0.41352 -0.31600
O 	O 	0.20390 0.88400 0.49614 -0.32600
O 	O 	0.31050 0.81680 0.54277 -0.48100
O 	O 	0.39870 0.99000 0.80533 -0.44900
O 	O 	0.37530 0.84810 0.77655 -0.30600
O 	O 	0.34170 0.97330 0.68566 -0.35500
O 	O 	0.41180 0.88090 0.63311 -0.45900
O 	O 	0.71390 0.60940 0.63020 -0.44800
O 	O 	0.83860 0.57070 0.58648 -0.31700
O 	O 	0.70390 0.61600 0.50386 -0.32600
O 	O 	0.81050 0.68320 0.45723 -0.48100
O 	O 	0.89870 0.51000 0.19467 -0.44900
O 	O 	0.87530 0.65190 0.22345 -0.30600
O 	O 	0.84170 0.52670 0.31434 -0.35500
O 	O 	0.91180 0.61910 0.36689 -0.45900
O 	O 	0.78610 0.39060 0.13020 -0.44800
O 	O 	0.66140 0.42930 0.08648 -0.31700
O 	O 	0.79610 0.38400 0.00386 -0.32600
O 	O 	0.68950 0.31680 0.95723 -0.48100
O 	O 	0.60130 0.49000 0.69467 -0.44900
O 	O 	0.62470 0.34810 0.72345 -0.30500
O 	O 	0.65830 0.47330 0.81434 -0.35500
O 	O 	0.58820 0.38090 0.86689 -0.45900
O 	O 	0.71390 0.89060 0.13020 -0.44800
O 	O 	0.83860 0.92930 0.08648 -0.31500
O 	O 	0.70390 0.88400 0.00386 -0.32400
O 	O 	0.81050 0.81680 0.95723 -0.48100
O 	O 	0.89870 0.99000 0.69467 -0.44900
O 	O 	0.87530 0.84810 0.72345 -0.30600
O 	O 	0.84170 0.97330 0.81434 -0.35500
O 	O 	0.91180 0.88090 0.86689 -0.45900
O 	O 	0.78610 0.10940 0.63020 -0.44800
O 	O 	0.66140 0.07070 0.58648 -0.31600
O 	O 	0.79610 0.11600 0.50386 -0.32600
O 	O 	0.68950 0.18320 0.45723 -0.48100
O 	O 	0.60130 0.01000 0.19467 -0.44900
O 	O 	0.62470 0.15190 0.22345 -0.30600
O 	O 	0.65830 0.02670 0.31434 -0.35500
O 	O 	0.58820 0.11910 0.36689 -0.45900
O 	O 	0.28610 0.39060 0.36980 -0.44800
O 	O 	0.16140 0.42930 0.41352 -0.31700
O 	O 	0.29610 0.38400 0.49614 -0.32600
O 	O 	0.18950 0.31680 0.54277 -0.48100
O 	O 	0.10130 0.49000 0.80533 -0.44900
O 	O 	0.12470 0.34810 0.77655 -0.30600
O 	O 	0.15830 0.47330 0.68566 -0.35500
O 	O 	0.08820 0.38090 0.63311 -0.45900
O 	O 	0.21390 0.60940 0.86980 -0.44800
O 	O 	0.33860 0.57070 0.91352 -0.31700
O 	O 	0.20390 0.61600 0.99614 -0.32600
O 	O 	0.31050 0.68320 0.04277 -0.48100
O 	O 	0.39870 0.51000 0.30533 -0.44900
O 	O 	0.37530 0.65190 0.27655 -0.30500
O 	O 	0.34170 0.52670 0.18566 -0.35500
O 	O 	0.41180 0.61910 0.13311 -0.45900
