data_crystal

_cell_length_a 13.46410
_cell_length_b 13.46410
_cell_length_c 23.37510
_cell_angle_alpha 90.00000
_cell_angle_beta  90.00000
_cell_angle_gamma 90.00000

_symmetry_space_group_name_	'P 1'
_symmetry_space_group_name_H-M	'P 1'

loop_
_symmetry_equiv_pos_as_xyz
  x,y,z

loop_
_atom_site_label
_atom_site_type_symbol
_atom_site_fract_x
_atom_site_fract_y
_atom_site_fract_z
_atom_site_charge
Zn	Zn	0.14210 0.20429 0.94136 1.21500
Zn	Zn	0.85790 0.79571 0.44136 1.21500
Zn	Zn	0.29571 0.64210 0.19136 1.21500
Zn	Zn	0.70429 0.35790 0.69136 1.21500
Zn	Zn	0.35790 0.70429 0.30864 1.21600
Zn	Zn	0.64210 0.29571 0.80864 1.21600
Zn	Zn	0.20429 0.14210 0.05864 1.21600
Zn	Zn	0.79571 0.85790 0.55864 1.21600
H 	H 	0.01310 0.33190 0.71990 0.04100
H 	H 	0.22400 0.24740 0.83020 0.02000
H 	H 	0.94730 0.25580 0.88010 0.01500
H 	H 	0.32780 0.31240 0.77710 0.06200
H 	H 	0.41040 0.32790 0.61400 0.04800
H 	H 	0.24960 0.31040 0.58570 0.04700
H 	H 	0.12420 0.28950 0.65280 0.05900
H 	H 	0.98690 0.66810 0.21990 0.04100
H 	H 	0.77600 0.75260 0.33020 0.02000
H 	H 	0.05270 0.74420 0.38010 0.01500
H 	H 	0.67220 0.68760 0.27710 0.06200
H 	H 	0.58960 0.67210 0.11400 0.04800
H 	H 	0.75040 0.68960 0.08570 0.04700
H 	H 	0.87580 0.71050 0.15280 0.05900
H 	H 	0.16810 0.51310 0.96990 0.04100
H 	H 	0.25260 0.72400 0.08020 0.02000
H 	H 	0.24420 0.44730 0.13010 0.01500
H 	H 	0.18760 0.82780 0.02710 0.06300
H 	H 	0.17210 0.91040 0.86400 0.04800
H 	H 	0.18960 0.74960 0.83570 0.04600
H 	H 	0.21050 0.62420 0.90280 0.05900
H 	H 	0.83190 0.48690 0.46990 0.04100
H 	H 	0.74740 0.27600 0.58020 0.02000
H 	H 	0.75580 0.55270 0.63010 0.01500
H 	H 	0.81240 0.17220 0.52710 0.06200
H 	H 	0.82790 0.08960 0.36400 0.04800
H 	H 	0.81040 0.25040 0.33570 0.04600
H 	H 	0.78950 0.37580 0.40280 0.05900
H 	H 	0.48690 0.83190 0.53010 0.04100
H 	H 	0.27600 0.74740 0.41980 0.02000
H 	H 	0.55270 0.75580 0.36990 0.01500
H 	H 	0.17220 0.81240 0.47290 0.06200
H 	H 	0.08960 0.82790 0.63600 0.04800
H 	H 	0.25040 0.81040 0.66430 0.04600
H 	H 	0.37580 0.78950 0.59720 0.05900
H 	H 	0.51310 0.16810 0.03010 0.04100
H 	H 	0.72400 0.25260 0.91980 0.02000
H 	H 	0.44730 0.24420 0.86990 0.01500
H 	H 	0.82780 0.18760 0.97290 0.06300
H 	H 	0.91040 0.17210 0.13600 0.04800
H 	H 	0.74960 0.18960 0.16430 0.04600
H 	H 	0.62420 0.21050 0.09720 0.05900
H 	H 	0.33190 0.01310 0.28010 0.04100
H 	H 	0.24740 0.22400 0.16980 0.02000
H 	H 	0.25580 0.94730 0.11990 0.01500
H 	H 	0.31240 0.32780 0.22290 0.06200
H 	H 	0.32790 0.41040 0.38600 0.04800
H 	H 	0.31040 0.24960 0.41430 0.04700
H 	H 	0.28950 0.12420 0.34720 0.05900
H 	H 	0.66810 0.98690 0.78010 0.04100
H 	H 	0.75260 0.77600 0.66980 0.02000
H 	H 	0.74420 0.05270 0.61990 0.01500
H 	H 	0.68760 0.67220 0.72290 0.06200
H 	H 	0.67210 0.58960 0.88600 0.04800
H 	H 	0.68960 0.75040 0.91430 0.04700
H 	H 	0.71050 0.87580 0.84720 0.05900
C 	C 	0.85490 0.30900 0.78540 0.40100
C 	C 	0.96320 0.29470 0.79810 -0.12600
C 	C 	0.03310 0.30960 0.75580 0.01900
C 	C 	0.13330 0.29170 0.76630 -0.03200
C 	C 	0.15780 0.26080 0.82190 0.02600
C 	C 	0.99430 0.26520 0.85140 0.08300
C 	C 	0.21210 0.30370 0.72270 0.03300
C 	C 	0.31160 0.31230 0.73850 -0.03600
C 	C 	0.38750 0.32080 0.69820 -0.08600
C 	C 	0.36110 0.32070 0.64160 -0.00100
C 	C 	0.26490 0.31030 0.62450 -0.03700
C 	C 	0.18940 0.29950 0.66470 -0.06500
C 	C 	0.49130 0.32810 0.71720 0.39800
C 	C 	0.14510 0.69100 0.28540 0.40100
C 	C 	0.03680 0.70530 0.29810 -0.12600
C 	C 	0.96690 0.69040 0.25580 0.02000
C 	C 	0.86670 0.70830 0.26630 -0.03200
C 	C 	0.84220 0.73920 0.32190 0.02700
C 	C 	0.00570 0.73480 0.35140 0.08200
C 	C 	0.78790 0.69630 0.22270 0.03300
C 	C 	0.68840 0.68770 0.23850 -0.03600
C 	C 	0.61250 0.67920 0.19820 -0.08600
C 	C 	0.63890 0.67930 0.14160 -0.00100
C 	C 	0.73510 0.68970 0.12450 -0.03700
C 	C 	0.81060 0.70050 0.16470 -0.06500
C 	C 	0.50870 0.67190 0.21720 0.39800
C 	C 	0.19100 0.35490 0.03540 0.40100
C 	C 	0.20530 0.46320 0.04810 -0.12500
C 	C 	0.19040 0.53310 0.00580 0.01900
C 	C 	0.20830 0.63330 0.01630 -0.03200
C 	C 	0.23920 0.65780 0.07190 0.02600
C 	C 	0.23480 0.49430 0.10140 0.08400
C 	C 	0.19630 0.71210 0.97270 0.03400
C 	C 	0.18770 0.81160 0.98850 -0.03900
C 	C 	0.17920 0.88750 0.94820 -0.08300
C 	C 	0.17930 0.86110 0.89160 -0.00400
C 	C 	0.18970 0.76490 0.87450 -0.03500
C 	C 	0.20050 0.68940 0.91470 -0.06700
C 	C 	0.17190 0.99130 0.96720 0.39000
C 	C 	0.80900 0.64510 0.53540 0.40100
C 	C 	0.79470 0.53680 0.54810 -0.12500
C 	C 	0.80960 0.46690 0.50580 0.01800
C 	C 	0.79170 0.36670 0.51630 -0.03200
C 	C 	0.76080 0.34220 0.57190 0.02600
C 	C 	0.76520 0.50570 0.60140 0.08400
C 	C 	0.80370 0.28790 0.47270 0.03400
C 	C 	0.81230 0.18840 0.48850 -0.03800
C 	C 	0.82080 0.11250 0.44820 -0.08300
C 	C 	0.82070 0.13890 0.39160 -0.00400
C 	C 	0.81030 0.23510 0.37450 -0.03600
C 	C 	0.79950 0.31060 0.41470 -0.06700
C 	C 	0.82810 0.00870 0.46720 0.38900
C 	C 	0.64510 0.80900 0.46460 0.40100
C 	C 	0.53680 0.79470 0.45190 -0.12500
C 	C 	0.46690 0.80960 0.49420 0.01800
C 	C 	0.36670 0.79170 0.48370 -0.03200
C 	C 	0.34220 0.76080 0.42810 0.02600
C 	C 	0.50570 0.76520 0.39860 0.08400
C 	C 	0.28790 0.80370 0.52730 0.03400
C 	C 	0.18840 0.81230 0.51150 -0.03800
C 	C 	0.11250 0.82080 0.55180 -0.08300
C 	C 	0.13890 0.82070 0.60840 -0.00400
C 	C 	0.23510 0.81030 0.62550 -0.03600
C 	C 	0.31060 0.79950 0.58530 -0.06700
C 	C 	0.00870 0.82810 0.53280 0.38900
C 	C 	0.35490 0.19100 0.96460 0.40100
C 	C 	0.46320 0.20530 0.95190 -0.12500
C 	C 	0.53310 0.19040 0.99420 0.01900
C 	C 	0.63330 0.20830 0.98370 -0.03200
C 	C 	0.65780 0.23920 0.92810 0.02600
C 	C 	0.49430 0.23480 0.89860 0.08400
C 	C 	0.71210 0.19630 0.02730 0.03400
C 	C 	0.81160 0.18770 0.01150 -0.03900
C 	C 	0.88750 0.17920 0.05180 -0.08300
C 	C 	0.86110 0.17930 0.10840 -0.00400
C 	C 	0.76490 0.18970 0.12550 -0.03500
C 	C 	0.68940 0.20050 0.08530 -0.06700
C 	C 	0.99130 0.17190 0.03280 0.39000
C 	C 	0.30900 0.85490 0.21460 0.40100
C 	C 	0.29470 0.96320 0.20190 -0.12600
C 	C 	0.30960 0.03310 0.24420 0.01900
C 	C 	0.29170 0.13330 0.23370 -0.03200
C 	C 	0.26080 0.15780 0.17810 0.02600
C 	C 	0.26520 0.99430 0.14860 0.08300
C 	C 	0.30370 0.21210 0.27730 0.03300
C 	C 	0.31230 0.31160 0.26150 -0.03600
C 	C 	0.32080 0.38750 0.30180 -0.08600
C 	C 	0.32070 0.36110 0.35840 -0.00100
C 	C 	0.31030 0.26490 0.37550 -0.03700
C 	C 	0.29950 0.18940 0.33530 -0.06500
C 	C 	0.32810 0.49130 0.28280 0.39800
C 	C 	0.69100 0.14510 0.71460 0.40100
C 	C 	0.70530 0.03680 0.70190 -0.12600
C 	C 	0.69040 0.96690 0.74420 0.02000
C 	C 	0.70830 0.86670 0.73370 -0.03200
C 	C 	0.73920 0.84220 0.67810 0.02700
C 	C 	0.73480 0.00570 0.64860 0.08200
C 	C 	0.69630 0.78790 0.77730 0.03300
C 	C 	0.68770 0.68840 0.76150 -0.03600
C 	C 	0.67920 0.61250 0.80180 -0.08600
C 	C 	0.67930 0.63890 0.85840 -0.00100
C 	C 	0.68970 0.73510 0.87550 -0.03700
C 	C 	0.70050 0.81060 0.83530 -0.06500
C 	C 	0.67190 0.50870 0.78280 0.39800
N 	N 	0.09070 0.24970 0.86340 -0.24000
N 	N 	0.90930 0.75030 0.36340 -0.23900
N 	N 	0.25030 0.59070 0.11340 -0.24000
N 	N 	0.74970 0.40930 0.61340 -0.24000
N 	N 	0.40930 0.74970 0.38660 -0.24000
N 	N 	0.59070 0.25030 0.88660 -0.24000
N 	N 	0.24970 0.09070 0.13660 -0.24000
N 	N 	0.75030 0.90930 0.63660 -0.23900
O 	O 	0.79380 0.28780 0.82420 -0.44600
O 	O 	0.83410 0.34030 0.73670 -0.46800
O 	O 	0.50970 0.31320 0.76920 -0.46600
O 	O 	0.55560 0.34650 0.68030 -0.46400
O 	O 	0.20620 0.71220 0.32420 -0.44600
O 	O 	0.16590 0.65970 0.23670 -0.46900
O 	O 	0.49030 0.68680 0.26920 -0.46600
O 	O 	0.44440 0.65350 0.18030 -0.46400
O 	O 	0.21220 0.29380 0.07420 -0.44600
O 	O 	0.15970 0.33410 0.98670 -0.46800
O 	O 	0.18680 0.00970 0.01920 -0.46200
O 	O 	0.15350 0.05560 0.93030 -0.46000
O 	O 	0.78780 0.70620 0.57420 -0.44600
O 	O 	0.84030 0.66590 0.48670 -0.46800
O 	O 	0.81320 0.99030 0.51920 -0.46200
O 	O 	0.84650 0.94440 0.43030 -0.46000
O 	O 	0.70620 0.78780 0.42580 -0.44600
O 	O 	0.66590 0.84030 0.51330 -0.46800
O 	O 	0.99030 0.81320 0.48080 -0.46200
O 	O 	0.94440 0.84650 0.56970 -0.46000
O 	O 	0.29380 0.21220 0.92580 -0.44600
O 	O 	0.33410 0.15970 0.01330 -0.46800
O 	O 	0.00970 0.18680 0.98080 -0.46200
O 	O 	0.05560 0.15350 0.06970 -0.46000
O 	O 	0.28780 0.79380 0.17580 -0.44600
O 	O 	0.34030 0.83410 0.26330 -0.46800
O 	O 	0.31320 0.50970 0.23080 -0.46600
O 	O 	0.34650 0.55560 0.31970 -0.46400
O 	O 	0.71220 0.20620 0.67580 -0.44600
O 	O 	0.65970 0.16590 0.76330 -0.46900
O 	O 	0.68680 0.49030 0.73080 -0.46600
O 	O 	0.65350 0.44440 0.81970 -0.46400
