data_crystal

_cell_length_a 12.76240
_cell_length_b 12.76240
_cell_length_c 17.62910
_cell_angle_alpha 90.00000
_cell_angle_beta  90.00000
_cell_angle_gamma 120.00000

_symmetry_space_group_name_	'P 1'
_symmetry_space_group_name_H-M	'P 1'

loop_
_symmetry_equiv_pos_as_xyz
  x,y,z

loop_
_atom_site_label
_atom_site_type_symbol
_atom_site_fract_x
_atom_site_fract_y
_atom_site_fract_z
_atom_site_charge
In	In	-0.00000 0.37204 0.16670 1.97900
In	In	0.62796 0.62796 0.50003 1.99300
In	In	0.37204 0.00000 0.83337 1.97900
H 	H 	0.58620 0.56360 0.24270 0.14100
H 	H 	0.43640 0.02260 0.57603 0.13200
H 	H 	0.97740 0.41380 0.90937 0.14400
H 	H 	0.56360 0.58620 0.75730 0.14100
H 	H 	0.02260 0.43640 0.42397 0.13200
H 	H 	0.41380 0.97740 0.09063 0.14200
H 	H 	0.53270 0.37090 0.24480 -0.02200
H 	H 	0.62910 0.16180 0.57813 -0.03900
H 	H 	0.83820 0.46730 0.91147 -0.01000
H 	H 	0.37090 0.53270 0.75520 -0.02200
H 	H 	0.16180 0.62910 0.42187 -0.03900
H 	H 	0.46730 0.83820 0.08853 -0.00900
H 	H 	0.44230 0.34120 0.31300 -0.00400
H 	H 	0.65880 0.10110 0.64633 -0.01800
H 	H 	0.89890 0.55770 0.97967 0.01500
H 	H 	0.34120 0.44230 0.68700 -0.00400
H 	H 	0.10110 0.65880 0.35367 -0.01800
H 	H 	0.55770 0.89890 0.02033 0.01700
H 	H 	0.29160 0.28170 0.23420 0.06800
H 	H 	0.71830 0.00990 0.56753 0.08700
H 	H 	0.99010 0.70840 0.90087 0.06700
H 	H 	0.28170 0.29160 0.76580 0.06800
H 	H 	0.00990 0.71830 0.43247 0.08700
H 	H 	0.70840 0.99010 0.09913 0.06800
H 	H 	0.38090 0.30520 0.16630 0.05800
H 	H 	0.69480 0.07570 0.49963 0.07900
H 	H 	0.92430 0.61910 0.83297 0.04700
H 	H 	0.30520 0.38090 0.83370 0.05800
H 	H 	0.07570 0.69480 0.50037 0.07900
H 	H 	0.61910 0.92430 0.16703 0.04700
H 	H 	0.51280 0.53420 0.11750 0.10700
H 	H 	0.46580 0.97860 0.45083 0.14200
H 	H 	0.02140 0.48720 0.78417 0.07000
H 	H 	0.53420 0.51280 0.88250 0.10600
H 	H 	0.97860 0.46580 0.54917 0.14200
H 	H 	0.48720 0.02140 0.21583 0.07100
H 	H 	0.42360 0.58160 0.09890 0.11400
H 	H 	0.41840 0.84200 0.43223 0.13600
H 	H 	0.15800 0.57640 0.76557 0.09300
H 	H 	0.58160 0.42360 0.90110 0.11300
H 	H 	0.84200 0.41840 0.56777 0.13600
H 	H 	0.57640 0.15800 0.23443 0.09400
H 	H 	0.39510 0.45370 0.07040 0.11100
H 	H 	0.54630 0.94140 0.40373 0.14600
H 	H 	0.05860 0.60490 0.73707 0.07800
H 	H 	0.45370 0.39510 0.92960 0.11000
H 	H 	0.94140 0.54630 0.59627 0.14600
H 	H 	0.60490 0.05860 0.26293 0.07900
H 	H 	0.28850 0.42540 0.33340 0.32300
H 	H 	0.57460 0.86310 0.66673 0.36000
H 	H 	0.13690 0.71150 0.00007 0.28500
H 	H 	0.42540 0.28850 0.66660 0.32300
H 	H 	0.86310 0.57460 0.33327 0.36000
H 	H 	0.71150 0.13690 0.99993 0.27600
H 	H 	0.25650 0.52010 0.30050 0.31900
H 	H 	0.47990 0.73640 0.63383 0.33700
H 	H 	0.26360 0.74350 0.96717 0.29600
H 	H 	0.52010 0.25650 0.69950 0.31900
H 	H 	0.73640 0.47990 0.36617 0.33700
H 	H 	0.74350 0.26360 0.03283 0.28900
H 	H 	0.35980 0.56020 0.36080 0.32800
H 	H 	0.43980 0.79960 0.69413 0.35500
H 	H 	0.20040 0.64020 0.02747 0.29000
H 	H 	0.56020 0.35980 0.63920 0.32800
H 	H 	0.79960 0.43980 0.30587 0.35500
H 	H 	0.64020 0.20040 0.97253 0.28100
H 	H 	0.51890 0.70090 0.19510 0.30300
H 	H 	0.29910 0.81800 0.52843 0.31000
H 	H 	0.18200 0.48110 0.86177 0.28100
H 	H 	0.70090 0.51890 0.80490 0.30300
H 	H 	0.81800 0.29910 0.47157 0.31000
H 	H 	0.48110 0.18200 0.13823 0.27900
H 	H 	0.49220 0.72370 0.27840 0.31200
H 	H 	0.27630 0.76850 0.61173 0.31500
H 	H 	0.23150 0.50780 0.94507 0.29000
H 	H 	0.72370 0.49220 0.72160 0.31200
H 	H 	0.76850 0.27630 0.38827 0.31500
H 	H 	0.50780 0.23150 0.05493 0.28900
H 	H 	0.39130 0.68190 0.21620 0.31800
H 	H 	0.31810 0.70940 0.54953 0.31800
H 	H 	0.29060 0.60870 0.88287 0.30200
H 	H 	0.68190 0.39130 0.78380 0.31800
H 	H 	0.70940 0.31810 0.45047 0.31800
H 	H 	0.60870 0.29060 0.11713 0.30000
H 	H 	0.08830 0.14500 0.33550 0.15100
H 	H 	0.85500 0.94330 0.66883 0.10900
H 	H 	0.05670 0.91170 0.00217 0.15600
H 	H 	0.14500 0.08830 0.66450 0.15100
H 	H 	0.94330 0.85500 0.33117 0.10900
H 	H 	0.91170 0.05670 0.99783 0.15200
H 	H 	0.01540 0.13610 0.26180 0.15700
H 	H 	0.86390 0.87930 0.59513 0.11700
H 	H 	0.12070 0.98460 0.92847 0.20100
H 	H 	0.13610 0.01540 0.73820 0.15700
H 	H 	0.87930 0.86390 0.40487 0.11700
H 	H 	0.98460 0.12070 0.07153 0.19800
H 	H 	0.07220 0.05280 0.27160 0.14000
H 	H 	0.94720 0.01940 0.60493 0.07200
H 	H 	0.98060 0.92780 0.93827 0.20300
H 	H 	0.05280 0.07220 0.72840 0.14000
H 	H 	0.01940 0.94720 0.39507 0.07200
H 	H 	0.92780 0.98060 0.06173 0.20000
H 	H 	0.75570 0.87570 0.29970 0.16700
H 	H 	0.12430 0.88000 0.63303 0.17200
H 	H 	0.12000 0.24430 0.96637 0.16600
H 	H 	0.87570 0.75570 0.70030 0.16700
H 	H 	0.88000 0.12430 0.36697 0.17200
H 	H 	0.24430 0.12000 0.03363 0.16700
H 	H 	0.85450 0.90030 0.23840 0.16500
H 	H 	0.09970 0.95420 0.57173 0.16500
H 	H 	0.04580 0.14550 0.90507 0.13600
H 	H 	0.90030 0.85450 0.76160 0.16500
H 	H 	0.95420 0.09970 0.42827 0.16500
H 	H 	0.14550 0.04580 0.09493 0.13500
H 	H 	0.81130 0.99440 0.25110 0.18300
H 	H 	0.00560 0.81690 0.58443 0.15200
H 	H 	0.18310 0.18870 0.91777 0.16500
H 	H 	0.99440 0.81130 0.74890 0.18300
H 	H 	0.81690 0.00560 0.41557 0.15200
H 	H 	0.18870 0.18310 0.08223 0.16500
C 	C 	0.35750 0.45240 0.18700 -0.12300
C 	C 	0.54760 0.90510 0.52033 -0.06200
C 	C 	0.09490 0.64250 0.85367 -0.16200
C 	C 	0.45240 0.35750 0.81300 -0.12400
C 	C 	0.90510 0.54760 0.47967 -0.06200
C 	C 	0.64250 0.09490 0.14633 -0.15900
C 	C 	0.41350 0.53830 0.25430 0.51700
C 	C 	0.46170 0.87520 0.58763 0.56000
C 	C 	0.12480 0.58650 0.92097 0.46300
C 	C 	0.53830 0.41350 0.74570 0.51800
C 	C 	0.87520 0.46170 0.41237 0.56000
C 	C 	0.58650 0.12480 0.07903 0.45400
C 	C 	0.51860 0.51840 0.27770 -0.38200
C 	C 	0.48160 0.00020 0.61103 -0.42900
C 	C 	0.99980 0.48140 0.94437 -0.34700
C 	C 	0.51840 0.51860 0.72230 -0.38200
C 	C 	0.00020 0.48160 0.38897 -0.42900
C 	C 	0.48140 0.99980 0.05563 -0.34100
C 	C 	0.47000 0.38460 0.26540 0.08700
C 	C 	0.61540 0.08540 0.59873 0.13600
C 	C 	0.91460 0.53000 0.93207 0.05100
C 	C 	0.38460 0.47000 0.73460 0.08600
C 	C 	0.08540 0.61540 0.40127 0.13600
C 	C 	0.53000 0.91460 0.06793 0.04800
C 	C 	0.36640 0.34160 0.21040 -0.15900
C 	C 	0.65840 0.02480 0.54373 -0.25400
C 	C 	0.97520 0.63360 0.87707 -0.08900
C 	C 	0.34160 0.36640 0.78960 -0.15900
C 	C 	0.02480 0.65840 0.45627 -0.25400
C 	C 	0.63360 0.97520 0.12293 -0.08900
C 	C 	0.42930 0.51130 0.11090 -0.33000
C 	C 	0.48870 0.91800 0.44423 -0.39900
C 	C 	0.08200 0.57070 0.77757 -0.27100
C 	C 	0.51130 0.42930 0.88910 -0.32900
C 	C 	0.91800 0.48870 0.55577 -0.39900
C 	C 	0.57070 0.08200 0.22243 -0.27300
C 	C 	0.32090 0.50820 0.31820 -0.99300
C 	C 	0.49180 0.81270 0.65153 -1.04900
C 	C 	0.18730 0.67910 0.98487 -0.89800
C 	C 	0.50820 0.32090 0.68180 -0.99300
C 	C 	0.81270 0.49180 0.34847 -1.04900
C 	C 	0.67910 0.18730 0.01513 -0.87200
C 	C 	0.45840 0.67450 0.23400 -0.95700
C 	C 	0.32550 0.78390 0.56733 -0.97800
C 	C 	0.21610 0.54160 0.90067 -0.90500
C 	C 	0.67450 0.45840 0.76600 -0.95700
C 	C 	0.78390 0.32550 0.43267 -0.97800
C 	C 	0.54160 0.21610 0.09933 -0.89700
C 	C 	0.22590 0.41990 0.17260 0.34100
C 	C 	0.58010 0.80600 0.50593 0.31900
C 	C 	0.19400 0.77410 0.83927 0.34200
C 	C 	0.41990 0.22590 0.82740 0.34100
C 	C 	0.80600 0.58010 0.49407 0.32000
C 	C 	0.77410 0.19400 0.16073 0.34100
C 	C 	0.56310 0.56160 0.35860 0.38300
C 	C 	0.43840 0.00150 0.69193 0.32900
C 	C 	0.99850 0.43690 0.02527 0.45200
C 	C 	0.56160 0.56310 0.64140 0.38300
C 	C 	0.00150 0.43840 0.30807 0.32900
C 	C 	0.43690 0.99850 0.97473 0.44900
C 	C 	0.03430 0.09110 0.29750 -0.49100
C 	C 	0.90890 0.94320 0.63083 -0.22000
C 	C 	0.05680 0.96570 0.96417 -0.47800
C 	C 	0.09110 0.03430 0.70250 -0.49100
C 	C 	0.94320 0.90890 0.36917 -0.22000
C 	C 	0.96570 0.05680 0.03583 -0.46800
C 	C 	0.82800 0.93700 0.27550 -0.42500
C 	C 	0.06300 0.89100 0.60883 -0.45500
C 	C 	0.10900 0.17200 0.94217 -0.46300
C 	C 	0.93700 0.82800 0.72450 -0.42400
C 	C 	0.89100 0.06300 0.39117 -0.45500
C 	C 	0.17200 0.10900 0.05783 -0.46200
N 	N 	0.92420 0.00000 0.33330 0.06600
N 	N 	0.00000 0.92420 0.66663 0.06600
N 	N 	0.07580 0.07580 0.99997 0.07000
O 	O 	0.20570 0.50260 0.15480 -0.49000
O 	O 	0.49740 0.70310 0.48813 -0.48100
O 	O 	0.29690 0.79430 0.82147 -0.47300
O 	O 	0.50260 0.20570 0.84520 -0.49000
O 	O 	0.70310 0.49740 0.51187 -0.48100
O 	O 	0.79430 0.29690 0.17853 -0.47300
O 	O 	0.51610 0.49360 0.41420 -0.52200
O 	O 	0.50640 0.02250 0.74753 -0.52500
O 	O 	0.97750 0.48390 0.08087 -0.50600
O 	O 	0.49360 0.51610 0.58580 -0.52200
O 	O 	0.02250 0.50640 0.25247 -0.52500
O 	O 	0.48390 0.97750 0.91913 -0.50600
O 	O 	0.14110 0.31530 0.18000 -0.51300
O 	O 	0.68470 0.82580 0.51333 -0.47400
O 	O 	0.17420 0.85890 0.84667 -0.49200
O 	O 	0.31530 0.14110 0.82000 -0.51400
O 	O 	0.82580 0.68470 0.48667 -0.47400
O 	O 	0.85890 0.17420 0.15333 -0.49100
O 	O 	0.64770 0.66960 0.36770 -0.47000
O 	O 	0.33040 0.97810 0.70103 -0.41600
O 	O 	0.02190 0.35230 0.03437 -0.53600
O 	O 	0.66960 0.64770 0.63230 -0.47000
O 	O 	0.97810 0.33040 0.29897 -0.41600
O 	O 	0.35230 0.02190 0.96563 -0.53700
