data_crystal

_cell_length_a 12.99130
_cell_length_b 12.99130
_cell_length_c 17.39110
_cell_angle_alpha 90.00000
_cell_angle_beta  90.00000
_cell_angle_gamma 120.00000

_symmetry_space_group_name_	'P 1'
_symmetry_space_group_name_H-M	'P 1'

loop_
_symmetry_equiv_pos_as_xyz
  x,y,z

loop_
_atom_site_label
_atom_site_type_symbol
_atom_site_fract_x
_atom_site_fract_y
_atom_site_fract_z
_atom_site_charge
In	In	0.37710 0.00000 0.50000 1.98400
In	In	0.62290 0.62290 0.83333 1.99500
In	In	-0.00000 0.37710 0.16667 1.98500
H 	H 	0.56310 0.57570 0.56960 0.20200
H 	H 	0.34090 0.42350 0.64140 -0.02900
H 	H 	0.36770 0.52020 0.57740 -0.04700
H 	H 	0.33090 0.39190 0.48760 0.04300
H 	H 	0.28950 0.29310 0.55090 0.05200
H 	H 	0.45230 0.37570 0.39810 0.05300
H 	H 	0.58240 0.42130 0.42710 0.04000
H 	H 	0.52060 0.49660 0.44260 0.04000
H 	H 	0.71790 0.49020 0.61340 0.49700
H 	H 	0.69530 0.51380 0.52830 0.48900
H 	H 	0.68060 0.39040 0.55120 0.50000
H 	H 	0.57310 0.36610 0.68970 0.53500
H 	H 	0.53370 0.26420 0.62880 0.52300
H 	H 	0.43980 0.29300 0.66390 0.53300
H 	H 	0.01260 0.43690 0.90293 0.13000
H 	H 	0.08260 0.65910 0.97473 -0.01300
H 	H 	0.15250 0.63230 0.91073 -0.03000
H 	H 	0.06100 0.66910 0.82093 0.04400
H 	H 	0.00360 0.71050 0.88423 0.05000
H 	H 	0.92340 0.54770 0.73143 0.08800
H 	H 	0.83890 0.41760 0.76043 0.06600
H 	H 	0.97600 0.47940 0.77593 0.07800
H 	H 	0.77230 0.28210 0.94673 0.46500
H 	H 	0.81850 0.30470 0.86163 0.46000
H 	H 	0.70980 0.31940 0.88453 0.46800
H 	H 	0.79300 0.42690 0.02303 0.52700
H 	H 	0.73050 0.46630 0.96213 0.51300
H 	H 	0.85320 0.56020 0.99723 0.53000
H 	H 	0.42430 0.98740 0.23627 0.26700
H 	H 	0.57650 0.91740 0.30807 -0.03500
H 	H 	0.47980 0.84750 0.24407 -0.06400
H 	H 	0.60810 0.93900 0.15427 0.04900
H 	H 	0.70690 0.99640 0.21757 0.06600
H 	H 	0.62430 0.07660 0.06477 0.02000
H 	H 	0.57870 0.16110 0.09377 0.01100
H 	H 	0.50340 0.02400 0.10927 -0.00500
H 	H 	0.50980 0.22770 0.28007 0.52200
H 	H 	0.48620 0.18150 0.19497 0.51000
H 	H 	0.60960 0.29020 0.21787 0.52800
H 	H 	0.63390 0.20700 0.35637 0.57400
H 	H 	0.73580 0.26950 0.29547 0.56900
H 	H 	0.70700 0.14680 0.33057 0.57200
H 	H 	0.98740 0.42430 0.43040 0.26600
H 	H 	0.91740 0.57650 0.35860 -0.03500
H 	H 	0.84750 0.47980 0.42260 -0.06400
H 	H 	0.93900 0.60810 0.51240 0.04800
H 	H 	0.99640 0.70690 0.44910 0.06500
H 	H 	0.07660 0.62430 0.60190 0.01900
H 	H 	0.16110 0.57870 0.57290 0.01000
H 	H 	0.02400 0.50340 0.55740 -0.00600
H 	H 	0.22770 0.50980 0.38660 0.52200
H 	H 	0.18150 0.48620 0.47170 0.50900
H 	H 	0.29020 0.60960 0.44880 0.52800
H 	H 	0.20700 0.63390 0.31030 0.57400
H 	H 	0.26950 0.73580 0.37120 0.56900
H 	H 	0.14680 0.70700 0.33610 0.57200
H 	H 	0.57570 0.56310 0.09707 0.19800
H 	H 	0.42350 0.34090 0.02527 -0.02600
H 	H 	0.52020 0.36770 0.08927 -0.04500
H 	H 	0.39190 0.33090 0.17907 0.04300
H 	H 	0.29310 0.28950 0.11577 0.05300
H 	H 	0.37570 0.45230 0.26857 0.05500
H 	H 	0.42130 0.58240 0.23957 0.04200
H 	H 	0.49660 0.52060 0.22407 0.04200
H 	H 	0.49020 0.71790 0.05327 0.49400
H 	H 	0.51380 0.69530 0.13837 0.48400
H 	H 	0.39040 0.68060 0.11547 0.49600
H 	H 	0.36610 0.57310 0.97697 0.52200
H 	H 	0.26420 0.53370 0.03787 0.51400
H 	H 	0.29300 0.43980 0.00277 0.52400
H 	H 	0.43690 0.01260 0.76373 0.12700
H 	H 	0.65910 0.08260 0.69193 -0.01100
H 	H 	0.63230 0.15250 0.75593 -0.02800
H 	H 	0.66910 0.06100 0.84573 0.04400
H 	H 	0.71050 0.00360 0.78243 0.05000
H 	H 	0.54770 0.92340 0.93523 0.08700
H 	H 	0.41760 0.83890 0.90623 0.06600
H 	H 	0.47940 0.97600 0.89073 0.07800
H 	H 	0.28210 0.77230 0.71993 0.46200
H 	H 	0.30470 0.81850 0.80503 0.45600
H 	H 	0.31940 0.70980 0.78213 0.46500
H 	H 	0.42690 0.79300 0.64363 0.51600
H 	H 	0.46630 0.73050 0.70453 0.50500
H 	H 	0.56020 0.85320 0.66943 0.52300
H 	H 	0.98940 0.83160 0.78260 0.22900
H 	H 	0.06840 0.97020 0.78820 0.16600
H 	H 	0.12040 0.89540 0.75190 0.18900
H 	H 	0.06530 0.02120 0.57870 0.13600
H 	H 	0.16070 0.00940 0.62710 0.16200
H 	H 	0.10720 0.08610 0.65820 0.13700
H 	H 	0.01060 0.84220 0.55073 0.09300
H 	H 	0.93160 0.90180 0.54513 0.10100
H 	H 	0.87960 0.77500 0.58143 0.09900
H 	H 	0.93470 0.95590 0.75463 0.15100
H 	H 	0.83930 0.84870 0.70623 0.15400
H 	H 	0.89280 0.97890 0.67513 0.14800
H 	H 	0.84220 0.01060 0.11593 0.09200
H 	H 	0.90180 0.93160 0.12153 0.10100
H 	H 	0.77500 0.87960 0.08523 0.10000
H 	H 	0.95590 0.93470 0.91203 0.15300
H 	H 	0.84870 0.83930 0.96043 0.15400
H 	H 	0.97890 0.89280 0.99153 0.14700
H 	H 	0.83160 0.98940 0.88407 0.23000
H 	H 	0.97020 0.06840 0.87847 0.16700
H 	H 	0.89540 0.12040 0.91477 0.18900
H 	H 	0.02120 0.06530 0.08797 0.13800
H 	H 	0.00940 0.16070 0.03957 0.16400
H 	H 	0.08610 0.10720 0.00847 0.14000
H 	H 	0.16840 0.15780 0.44927 0.15000
H 	H 	0.02980 0.09820 0.45487 0.10100
H 	H 	0.10460 0.22500 0.41857 0.13000
H 	H 	0.97880 0.04410 0.24537 0.12900
H 	H 	0.99060 0.15130 0.29377 0.15100
H 	H 	0.91390 0.02110 0.32487 0.11100
H 	H 	0.15780 0.16840 0.21740 0.15000
H 	H 	0.09820 0.02980 0.21180 0.10100
H 	H 	0.22500 0.10460 0.24810 0.13000
H 	H 	0.04410 0.97880 0.42130 0.13000
H 	H 	0.15130 0.99060 0.37290 0.15200
H 	H 	0.02110 0.91390 0.34180 0.11100
C 	C 	0.45930 0.35170 0.51510 -0.28900
C 	C 	0.54420 0.41040 0.58650 1.03200
C 	C 	0.52090 0.51160 0.60700 -0.60600
C 	C 	0.38490 0.45920 0.59450 0.13900
C 	C 	0.35560 0.36820 0.53380 -0.11500
C 	C 	0.50820 0.41750 0.43850 -0.13800
C 	C 	0.67050 0.45510 0.56820 -1.59400
C 	C 	0.52070 0.32640 0.64730 -1.70400
C 	C 	0.42890 0.22330 0.50370 0.35600
C 	C 	0.56450 0.56240 0.68670 0.47500
C 	C 	0.89240 0.54070 0.84843 -0.22200
C 	C 	0.86620 0.45580 0.91983 0.96300
C 	C 	0.99070 0.47910 0.94033 -0.49300
C 	C 	0.07430 0.61510 0.92783 0.07400
C 	C 	0.01260 0.64440 0.86713 -0.15000
C 	C 	0.90930 0.49180 0.77183 -0.21700
C 	C 	0.78460 0.32950 0.90153 -1.50400
C 	C 	0.80570 0.47930 0.98063 -1.65600
C 	C 	0.79440 0.57110 0.83703 0.33700
C 	C 	0.99790 0.43550 0.02003 0.49400
C 	C 	0.64830 0.10760 0.18177 -0.35900
C 	C 	0.58960 0.13380 0.25317 1.12500
C 	C 	0.48840 0.00930 0.27367 -0.73200
C 	C 	0.54080 0.92570 0.26117 0.20800
C 	C 	0.63180 0.98740 0.20047 -0.08500
C 	C 	0.58250 0.09070 0.10517 -0.05200
C 	C 	0.54490 0.21540 0.23487 -1.69000
C 	C 	0.67360 0.19430 0.31397 -1.83000
C 	C 	0.77670 0.20560 0.17037 0.37000
C 	C 	0.43760 0.00210 0.35337 0.45600
C 	C 	0.10760 0.64830 0.48490 -0.36000
C 	C 	0.13380 0.58960 0.41350 1.12500
C 	C 	0.00930 0.48840 0.39300 -0.73000
C 	C 	0.92570 0.54080 0.40550 0.20600
C 	C 	0.98740 0.63180 0.46620 -0.08400
C 	C 	0.09070 0.58250 0.56150 -0.05000
C 	C 	0.21540 0.54490 0.43180 -1.68900
C 	C 	0.19430 0.67360 0.35270 -1.83100
C 	C 	0.20560 0.77670 0.49630 0.37000
C 	C 	0.00210 0.43760 0.31330 0.45600
C 	C 	0.35170 0.45930 0.15157 -0.28400
C 	C 	0.41040 0.54420 0.08017 1.01600
C 	C 	0.51160 0.52090 0.05967 -0.59400
C 	C 	0.45920 0.38490 0.07217 0.13400
C 	C 	0.36820 0.35560 0.13287 -0.11500
C 	C 	0.41750 0.50820 0.22817 -0.14400
C 	C 	0.45510 0.67050 0.09847 -1.57900
C 	C 	0.32640 0.52070 0.01937 -1.66900
C 	C 	0.22330 0.42890 0.16297 0.35500
C 	C 	0.56240 0.56450 0.97997 0.46800
C 	C 	0.54070 0.89240 0.81823 -0.21800
C 	C 	0.45580 0.86620 0.74683 0.95000
C 	C 	0.47910 0.99070 0.72633 -0.48200
C 	C 	0.61510 0.07430 0.73883 0.06800
C 	C 	0.64440 0.01260 0.79953 -0.14800
C 	C 	0.49180 0.90930 0.89483 -0.21800
C 	C 	0.32950 0.78460 0.76513 -1.49000
C 	C 	0.47930 0.80570 0.68603 -1.62500
C 	C 	0.57110 0.79440 0.82963 0.33600
C 	C 	0.43550 0.99790 0.64663 0.48900
C 	C 	0.05000 0.90100 0.75760 -0.55300
C 	C 	0.09040 0.01600 0.62980 -0.46300
C 	C 	0.95000 0.85100 0.57573 -0.24000
C 	C 	0.90960 0.92560 0.70353 -0.36400
C 	C 	0.85100 0.95000 0.09093 -0.23800
C 	C 	0.92560 0.90960 0.96313 -0.37000
C 	C 	0.90100 0.05000 0.90907 -0.55600
C 	C 	0.01600 0.09040 0.03687 -0.46400
C 	C 	0.09900 0.14900 0.42427 -0.39800
C 	C 	0.98400 0.07440 0.29647 -0.31700
C 	C 	0.14900 0.09900 0.24240 -0.39800
C 	C 	0.07440 0.98400 0.37020 -0.31700
N 	N 	-0.00000 0.91590 0.66667 0.04200
N 	N 	0.91590 0.00000 -0.00000 0.04500
N 	N 	0.08410 0.08410 0.33333 -0.00400
O 	O 	0.32450 0.13800 0.51430 -0.51800
O 	O 	0.51160 0.20300 0.48710 -0.50900
O 	O 	0.49710 0.51570 0.74330 -0.55900
O 	O 	0.66730 0.64370 0.69790 -0.50400
O 	O 	0.81350 0.67550 0.84763 -0.49800
O 	O 	0.69140 0.48840 0.82043 -0.49900
O 	O 	0.01860 0.50290 0.07663 -0.59200
O 	O 	0.97640 0.33270 0.03123 -0.49100
O 	O 	0.86200 0.18650 0.18097 -0.50000
O 	O 	0.79700 0.30860 0.15377 -0.50000
O 	O 	0.48430 0.98140 0.40997 -0.51400
O 	O 	0.35630 0.02360 0.36457 -0.52500
O 	O 	0.18650 0.86200 0.48570 -0.50000
O 	O 	0.30860 0.79700 0.51290 -0.50000
O 	O 	0.98140 0.48430 0.25670 -0.51500
O 	O 	0.02360 0.35630 0.30210 -0.52500
O 	O 	0.13800 0.32450 0.15237 -0.51700
O 	O 	0.20300 0.51160 0.17957 -0.50800
O 	O 	0.51570 0.49710 0.92337 -0.55800
O 	O 	0.64370 0.66730 0.96877 -0.50400
O 	O 	0.67550 0.81350 0.81903 -0.49700
O 	O 	0.48840 0.69140 0.84623 -0.49800
O 	O 	0.50290 0.01860 0.59003 -0.59300
O 	O 	0.33270 0.97640 0.63543 -0.49100
