data_crystal

_cell_length_a 9.11900
_cell_length_b 14.47110
_cell_length_c 14.73550
_cell_angle_alpha 90.00000
_cell_angle_beta  90.00000
_cell_angle_gamma 107.75200

_symmetry_space_group_name_	'P 1'
_symmetry_space_group_name_H-M	'P 1'

loop_
_symmetry_equiv_pos_as_xyz
  x,y,z

loop_
_atom_site_label
_atom_site_type_symbol
_atom_site_fract_x
_atom_site_fract_y
_atom_site_fract_z
_atom_site_charge
Zn	Zn	0.27724 0.36437 0.34906 1.22000
Zn	Zn	0.18311 0.13419 0.25261 1.21600
Zn	Zn	0.22276 0.13563 0.84906 1.22100
Zn	Zn	0.31689 0.36581 0.75261 1.21700
Zn	Zn	0.72276 0.63563 0.65094 1.22100
Zn	Zn	0.81689 0.86581 0.74739 1.21700
Zn	Zn	0.77724 0.86437 0.15094 1.22100
Zn	Zn	0.68311 0.63419 0.24739 1.21700
H 	H 	0.85810 0.39450 0.29800 -0.01200
H 	H 	0.70130 0.10240 0.27790 -0.03100
H 	H 	0.45050 0.10670 0.28610 0.10900
H 	H 	0.26110 0.41070 0.55330 -0.15700
H 	H 	0.64190 0.10550 0.79800 -0.01200
H 	H 	0.79870 0.39760 0.77790 -0.03200
H 	H 	0.04950 0.39330 0.78610 0.11000
H 	H 	0.23890 0.08930 0.05330 -0.15700
H 	H 	0.14190 0.60550 0.70200 -0.01200
H 	H 	0.29870 0.89760 0.72210 -0.03100
H 	H 	0.54950 0.89330 0.71390 0.10900
H 	H 	0.73890 0.58930 0.44670 -0.15700
H 	H 	0.35810 0.89450 0.20200 -0.01200
H 	H 	0.20130 0.60240 0.22210 -0.03200
H 	H 	0.95050 0.60670 0.21390 0.11000
H 	H 	0.76110 0.91070 0.94670 -0.15700
C 	C 	0.49780 0.25460 0.29540 0.33800
C 	C 	0.62430 0.34160 0.29850 -0.30100
C 	C 	0.77460 0.33610 0.29520 0.18400
C 	C 	0.80600 0.24840 0.28790 -0.24600
C 	C 	0.68220 0.16300 0.28370 0.19400
C 	C 	0.53250 0.16580 0.28800 -0.32200
C 	C 	0.60630 0.44130 0.30120 0.43300
C 	C 	0.96750 0.24490 0.28440 0.44600
C 	C 	0.27820 0.34930 0.54990 0.49500
C 	C 	0.00220 0.24540 0.79540 0.33900
C 	C 	0.87570 0.15840 0.79850 -0.30100
C 	C 	0.72540 0.16390 0.79520 0.18400
C 	C 	0.69400 0.25160 0.78790 -0.24600
C 	C 	0.81780 0.33700 0.78370 0.19500
C 	C 	0.96750 0.33420 0.78800 -0.32400
C 	C 	0.89370 0.05870 0.80120 0.43400
C 	C 	0.53250 0.25510 0.78440 0.44600
C 	C 	0.22180 0.15070 0.04990 0.49500
C 	C 	0.50220 0.74540 0.70460 0.33800
C 	C 	0.37570 0.65840 0.70150 -0.30100
C 	C 	0.22540 0.66390 0.70480 0.18400
C 	C 	0.19400 0.75160 0.71210 -0.24600
C 	C 	0.31780 0.83700 0.71630 0.19400
C 	C 	0.46750 0.83420 0.71200 -0.32200
C 	C 	0.39370 0.55870 0.69880 0.43300
C 	C 	0.03250 0.75510 0.71560 0.44600
C 	C 	0.72180 0.65070 0.45010 0.49500
C 	C 	0.99780 0.75460 0.20460 0.33900
C 	C 	0.12430 0.84160 0.20150 -0.30100
C 	C 	0.27460 0.83610 0.20480 0.18400
C 	C 	0.30600 0.74840 0.21210 -0.24600
C 	C 	0.18220 0.66300 0.21630 0.19500
C 	C 	0.03250 0.66580 0.21200 -0.32400
C 	C 	0.10630 0.94130 0.19880 0.43400
C 	C 	0.46750 0.74490 0.21560 0.44600
C 	C 	0.77820 0.84930 0.95010 0.49500
O 	O 	0.35180 0.25264 0.29676 -0.57700
O 	O 	0.47610 0.45465 0.30958 -0.53300
O 	O 	0.72620 0.51226 0.29350 -0.47300
O 	O 	0.07430 0.32437 0.29090 -0.51800
O 	O 	0.98750 0.16245 0.27600 -0.50000
O 	O 	0.28040 0.31260 0.47300 -0.50800
O 	O 	0.29710 0.30960 0.62200 -0.45900
O 	O 	0.14820 0.24736 0.79676 -0.57800
O 	O 	0.02390 0.04535 0.80958 -0.53300
O 	O 	0.77380 0.98774 0.79350 -0.47300
O 	O 	0.42570 0.17563 0.79090 -0.51700
O 	O 	0.51250 0.33755 0.77600 -0.50000
O 	O 	0.21960 0.18740 0.97300 -0.50800
O 	O 	0.20290 0.19040 0.12200 -0.45900
O 	O 	0.64820 0.74736 0.70324 -0.57700
O 	O 	0.52390 0.54535 0.69042 -0.53300
O 	O 	0.27380 0.48774 0.70650 -0.47300
O 	O 	0.92570 0.67563 0.70910 -0.51800
O 	O 	0.01250 0.83755 0.72400 -0.50000
O 	O 	0.71960 0.68740 0.52700 -0.50800
O 	O 	0.70290 0.69040 0.37800 -0.45900
O 	O 	0.85180 0.75264 0.20324 -0.57800
O 	O 	0.97610 0.95465 0.19042 -0.53300
O 	O 	0.22620 0.01226 0.20650 -0.47300
O 	O 	0.57430 0.82437 0.20910 -0.51700
O 	O 	0.48750 0.66245 0.22400 -0.50000
O 	O 	0.78040 0.81260 0.02700 -0.50800
O 	O 	0.79710 0.80960 0.87800 -0.45900
