data_crystal

_cell_length_a 7.79110
_cell_length_b 9.29840
_cell_length_c 10.62840
_cell_angle_alpha 65.32000
_cell_angle_beta  86.19900
_cell_angle_gamma 78.14500

_symmetry_space_group_name_	'P 1'
_symmetry_space_group_name_H-M	'P 1'

loop_
_symmetry_equiv_pos_as_xyz
  x,y,z

loop_
_atom_site_label
_atom_site_type_symbol
_atom_site_fract_x
_atom_site_fract_y
_atom_site_fract_z
_atom_site_charge
Zn	Zn	0.36488 0.43675 0.45589 1.21800
Zn	Zn	0.63512 0.56325 0.54411 1.21800
H 	H 	0.07020 0.18850 0.57220 0.05300
H 	H 	0.71820 0.03770 0.41140 0.05400
H 	H 	0.35480 0.24350 0.28840 -0.00500
H 	H 	0.20480 0.26920 0.09890 0.08200
H 	H 	0.29900 0.00400 0.84200 0.04800
H 	H 	0.01600 0.59200 0.32200 -0.01000
H 	H 	0.65300 0.20700 0.92800 0.05700
H 	H 	0.87700 0.62100 0.12500 0.13300
H 	H 	0.92980 0.81150 0.42780 0.05200
H 	H 	0.28180 0.96230 0.58860 0.05300
H 	H 	0.64520 0.75650 0.71160 -0.00500
H 	H 	0.79520 0.73080 0.90110 0.08200
H 	H 	0.70100 0.99600 0.15800 0.04800
H 	H 	0.98400 0.40800 0.67800 -0.01000
H 	H 	0.34700 0.79300 0.07200 0.05700
H 	H 	0.12300 0.37900 0.87500 0.13300
C 	C 	0.43830 0.26720 0.72910 0.36400
C 	C 	0.46760 0.12920 0.87040 -0.07900
C 	C 	0.37580 0.00500 0.90990 -0.01200
C 	C 	0.59170 0.12370 0.96130 -0.02700
C 	C 	0.73980 0.27970 0.47940 0.36400
C 	C 	0.04230 0.11240 0.54280 -0.02100
C 	C 	0.83250 0.02230 0.44690 -0.01600
C 	C 	0.26030 0.33230 0.24900 0.10000
C 	C 	0.17500 0.35030 0.13320 -0.14300
C 	C 	0.04500 0.48510 0.06490 0.08300
C 	C 	0.97410 0.55940 0.14780 -0.22100
C 	C 	0.06220 0.53140 0.26630 0.13300
C 	C 	0.87480 0.13560 0.48880 -0.07200
C 	C 	0.56170 0.73280 0.27090 0.36400
C 	C 	0.53240 0.87080 0.12960 -0.07900
C 	C 	0.62420 0.99500 0.09010 -0.01200
C 	C 	0.40830 0.87630 0.03870 -0.02700
C 	C 	0.26020 0.72030 0.52060 0.36400
C 	C 	0.95770 0.88760 0.45720 -0.02100
C 	C 	0.16750 0.97770 0.55310 -0.01600
C 	C 	0.73970 0.66770 0.75100 0.10000
C 	C 	0.82500 0.64970 0.86680 -0.14300
C 	C 	0.95500 0.51490 0.93510 0.08300
C 	C 	0.02590 0.44060 0.85220 -0.22100
C 	C 	0.93780 0.46860 0.73370 0.13300
C 	C 	0.12520 0.86440 0.51120 -0.07200
N 	N 	0.21550 0.43420 0.30710 -0.26600
N 	N 	0.78450 0.56580 0.69290 -0.26600
O 	O 	0.32760 0.26690 0.64870 -0.43900
O 	O 	0.52830 0.37340 0.70080 -0.46400
O 	O 	0.58420 0.28420 0.44600 -0.45400
O 	O 	0.78970 0.38380 0.50900 -0.45900
O 	O 	0.67240 0.73310 0.35130 -0.43900
O 	O 	0.47170 0.62660 0.29920 -0.46400
O 	O 	0.41580 0.71580 0.55400 -0.45400
O 	O 	0.21030 0.61620 0.49100 -0.45900
