data_crystal

_cell_length_a 6.64776
_cell_length_b 11.08470
_cell_length_c 11.08780
_cell_angle_alpha 93.99110
_cell_angle_beta  107.44400
_cell_angle_gamma 107.39300

_symmetry_space_group_name_	'P 1'
_symmetry_space_group_name_H-M	'P 1'

loop_
_symmetry_equiv_pos_as_xyz
  x,y,z

loop_
_atom_site_label
_atom_site_type_symbol
_atom_site_fract_x
_atom_site_fract_y
_atom_site_fract_z
_atom_site_charge
Al	Al	0.99418 0.00288 0.49962 2.37200
Al	Al	0.49296 0.00334 0.50022 2.38600
H 	H 	0.61089 0.00180 0.88453 0.05800
H 	H 	0.26433 0.38760 0.50288 -0.02000
H 	H 	0.37797 0.61829 0.49773 0.09300
H 	H 	0.72560 0.99836 0.11539 0.04600
H 	H 	0.37637 0.99868 0.11444 0.03800
H 	H 	0.72728 0.61893 0.49780 0.11200
H 	H 	0.61365 0.38840 0.50285 -0.00400
H 	H 	0.26163 0.00212 0.88348 0.03300
H 	H 	0.35910 0.11909 0.61638 0.46700
H 	H 	0.62459 0.88788 0.38249 0.36100
C 	C 	0.77791 0.00169 0.93335 -0.31700
C 	C 	0.14637 0.43691 0.50220 0.28100
C 	C 	0.21140 0.56958 0.49857 -0.12700
C 	C 	0.84354 0.99900 0.06612 0.19700
C 	C 	0.20974 0.99948 0.06567 0.29800
C 	C 	0.84527 0.56966 0.49854 -0.27700
C 	C 	0.78026 0.43705 0.50215 0.14100
C 	C 	0.14407 0.00213 0.93284 -0.12600
C 	C 	0.05857 0.99763 0.13480 -0.07400
C 	C 	0.12994 0.99714 0.27741 0.70000
C 	C 	0.05968 0.63811 0.49625 0.15700
C 	C 	0.13002 0.78053 0.49433 0.61000
C 	C 	0.92755 0.36783 0.50432 -0.37300
C 	C 	0.85633 0.22535 0.50596 0.35000
C 	C 	0.92536 0.00400 0.86427 -0.17200
C 	C 	0.85501 0.00677 0.72204 0.25600
O 	O 	0.00073 0.00716 0.66357 -0.57900
O 	O 	0.65625 0.16744 0.50632 -0.76700
O 	O 	0.98796 0.83888 0.49421 -0.69900
O 	O 	0.33483 0.99875 0.33604 -0.54200
O 	O 	0.98816 0.99704 0.33575 -0.70200
O 	O 	0.33452 0.83944 0.49451 -0.53900
O 	O 	0.00152 0.16710 0.50543 -0.59400
O 	O 	0.65540 0.00802 0.66418 -0.75700
O 	O 	0.68836 0.95056 0.44669 -0.93100
O 	O 	0.29591 0.05628 0.55177 -1.35600
