data_crystal

_cell_length_a 6.63100
_cell_length_b 11.07370
_cell_length_c 11.07740
_cell_angle_alpha 77.86960
_cell_angle_beta  72.64990
_cell_angle_gamma 72.64400

_symmetry_space_group_name_	'P 1'
_symmetry_space_group_name_H-M	'P 1'

loop_
_symmetry_equiv_pos_as_xyz
  x,y,z

loop_
_atom_site_label
_atom_site_type_symbol
_atom_site_fract_x
_atom_site_fract_y
_atom_site_fract_z
_atom_site_charge
Al	Al	0.49585 0.49780 0.49966 2.41500
Al	Al	0.99615 0.49869 0.49931 2.41200
H 	H 	0.61360 0.11326 0.50258 0.02900
H 	H 	0.87752 0.49631 0.88231 0.02300
H 	H 	0.73026 0.88152 0.49696 0.06500
H 	H 	0.76071 0.50137 0.11531 0.02700
H 	H 	0.37921 0.88103 0.49709 0.05600
H 	H 	0.11214 0.50144 0.11434 0.06400
H 	H 	0.26230 0.11375 0.50241 0.02700
H 	H 	0.22832 0.49629 0.88331 0.06100
H 	H 	0.25010 0.38044 0.60813 0.43400
H 	H 	0.75128 0.60566 0.38045 0.41200
C 	C 	0.78113 0.06438 0.50198 0.06800
C 	C 	0.70989 0.49750 0.93155 0.00200
C 	C 	0.84855 0.93058 0.49720 -0.10300
C 	C 	0.64338 0.49987 0.06615 0.00700
C 	C 	0.21178 0.93031 0.49729 -0.04300
C 	C 	0.28028 0.49991 0.06565 0.01800
C 	C 	0.14426 0.06464 0.50188 0.12800
C 	C 	0.34653 0.49749 0.93206 0.00700
C 	C 	0.92862 0.13299 0.49931 -0.23500
C 	C 	0.85685 0.27600 0.50011 0.53800
C 	C 	0.56556 0.49485 0.86411 -0.12000
C 	C 	0.63738 0.49374 0.72161 0.51400
C 	C 	0.06553 0.86251 0.49830 -0.01900
C 	C 	0.13691 0.72002 0.49739 0.56100
C 	C 	0.42618 0.50144 0.13399 -0.11300
C 	C 	0.35494 0.50187 0.27696 0.50600
O 	O 	0.65472 0.33413 0.50429 -0.67100
O 	O 	0.83505 0.49452 0.66107 -0.69300
O 	O 	0.99332 0.65988 0.49531 -0.74000
O 	O 	0.49800 0.50034 0.33599 -0.66200
O 	O 	0.33618 0.65929 0.49646 -0.68200
O 	O 	0.15435 0.50145 0.33548 -0.62200
O 	O 	0.99813 0.33470 0.50307 -0.70500
O 	O 	0.49250 0.49342 0.66159 -0.66300
O 	O 	0.74794 0.54741 0.44579 -1.16500
O 	O 	0.24753 0.44513 0.54897 -1.13800
