data_crystal

_cell_length_a 10.13890
_cell_length_b 14.18370
_cell_length_c 22.05180
_cell_angle_alpha 90.00000
_cell_angle_beta  90.00000
_cell_angle_gamma 90.00000

_symmetry_space_group_name_	'P 1'
_symmetry_space_group_name_H-M	'P 1'

loop_
_symmetry_equiv_pos_as_xyz
  x,y,z

loop_
_atom_site_label
_atom_site_type_symbol
_atom_site_fract_x
_atom_site_fract_y
_atom_site_fract_z
_atom_site_charge
Zn	Zn	0.49383 0.25000 0.52546 1.21200
Zn	Zn	0.50617 0.75000 0.47454 1.21200
Zn	Zn	0.49383 0.75000 0.97454 1.21200
Zn	Zn	0.50617 0.25000 0.02546 1.21200
H 	H 	0.44460 0.25000 0.78150 0.05300
H 	H 	0.55540 0.75000 0.21850 0.05300
H 	H 	0.44460 0.75000 0.71850 0.05300
H 	H 	0.55540 0.25000 0.28150 0.05300
H 	H 	0.17290 0.25000 0.91370 0.04200
H 	H 	0.82710 0.75000 0.08630 0.04200
H 	H 	0.17290 0.75000 0.58630 0.04200
H 	H 	0.82710 0.25000 0.41370 0.04200
H 	H 	0.07790 0.25000 0.64220 0.06200
H 	H 	0.92210 0.75000 0.35780 0.06200
H 	H 	0.07790 0.75000 0.85780 0.06200
H 	H 	0.92210 0.25000 0.14220 0.06200
H 	H 	0.28070 0.25000 0.70820 0.07400
H 	H 	0.71930 0.75000 0.29180 0.07400
H 	H 	0.28070 0.75000 0.79180 0.07400
H 	H 	0.71930 0.25000 0.20820 0.07400
H 	H 	0.29080 0.13350 0.44940 0.01300
H 	H 	0.70920 0.63350 0.55060 0.01300
H 	H 	0.29080 0.86650 0.05060 0.01300
H 	H 	0.70920 0.36650 0.94940 0.01300
H 	H 	0.70920 0.86650 0.55060 0.01300
H 	H 	0.29080 0.36650 0.44940 0.01300
H 	H 	0.70920 0.13350 0.94940 0.01300
H 	H 	0.29080 0.63350 0.05060 0.01300
H 	H 	0.87290 0.25000 0.59670 0.03100
H 	H 	0.12710 0.75000 0.40330 0.03100
H 	H 	0.87290 0.75000 0.90330 0.03000
H 	H 	0.12710 0.25000 0.09670 0.03000
H 	H 	0.15350 0.99120 0.42430 0.06800
H 	H 	0.84650 0.49120 0.57570 0.06800
H 	H 	0.15350 0.00880 0.07570 0.06800
H 	H 	0.84650 0.50880 0.92430 0.06800
H 	H 	0.84650 0.00880 0.57570 0.06800
H 	H 	0.15350 0.50880 0.42430 0.06800
H 	H 	0.84650 0.99120 0.92430 0.06800
H 	H 	0.15350 0.49120 0.07570 0.06800
H 	H 	0.20090 0.89880 0.45680 0.05700
H 	H 	0.79910 0.39880 0.54320 0.05700
H 	H 	0.20090 0.10120 0.04320 0.05700
H 	H 	0.79910 0.60120 0.95680 0.05700
H 	H 	0.79910 0.10120 0.54320 0.05700
H 	H 	0.20090 0.60120 0.45680 0.05700
H 	H 	0.79910 0.89880 0.95680 0.05700
H 	H 	0.20090 0.39880 0.04320 0.05700
H 	H 	0.69280 0.25000 0.75960 0.05000
H 	H 	0.30720 0.75000 0.24040 0.05000
H 	H 	0.69280 0.75000 0.74040 0.05000
H 	H 	0.30720 0.25000 0.25960 0.05000
H 	H 	0.04660 0.92390 0.53430 0.07400
H 	H 	0.95340 0.42390 0.46570 0.07400
H 	H 	0.04660 0.07610 0.96570 0.07300
H 	H 	0.95340 0.57610 0.03430 0.07200
H 	H 	0.95340 0.07610 0.46570 0.07400
H 	H 	0.04660 0.57610 0.53430 0.07400
H 	H 	0.95340 0.92390 0.03430 0.07300
H 	H 	0.04660 0.42390 0.96570 0.07200
H 	H 	0.97640 0.91340 0.47140 0.06500
H 	H 	0.02360 0.41340 0.52860 0.06500
H 	H 	0.97640 0.08660 0.02860 0.06400
H 	H 	0.02360 0.58660 0.97140 0.06400
H 	H 	0.02360 0.08660 0.52860 0.06500
H 	H 	0.97640 0.58660 0.47140 0.06500
H 	H 	0.02360 0.91340 0.97140 0.06400
H 	H 	0.97640 0.41340 0.02860 0.06400
H 	H 	0.43460 0.07020 0.60870 0.02300
H 	H 	0.56540 0.57020 0.39130 0.02300
H 	H 	0.43460 0.92980 0.89130 0.02300
H 	H 	0.56540 0.42980 0.10870 0.02300
H 	H 	0.56540 0.92980 0.39130 0.02300
H 	H 	0.43460 0.42980 0.60870 0.02300
H 	H 	0.56540 0.07020 0.10870 0.02300
H 	H 	0.43460 0.57020 0.89130 0.02300
H 	H 	0.29660 0.93960 0.57590 0.04600
H 	H 	0.70340 0.43960 0.42410 0.04600
H 	H 	0.29660 0.06040 0.92410 0.04500
H 	H 	0.70340 0.56040 0.07590 0.04600
H 	H 	0.70340 0.06040 0.42410 0.04600
H 	H 	0.29660 0.56040 0.57590 0.04600
H 	H 	0.70340 0.93960 0.07590 0.04500
H 	H 	0.29660 0.43960 0.92410 0.04600
C 	C 	0.12770 0.25000 0.76700 0.03700
C 	C 	0.87230 0.75000 0.23300 0.03700
C 	C 	0.12770 0.75000 0.73300 0.03700
C 	C 	0.87230 0.25000 0.26700 0.03700
C 	C 	0.35660 0.25000 0.79330 0.02100
C 	C 	0.64340 0.75000 0.20670 0.02100
C 	C 	0.35660 0.75000 0.70670 0.02100
C 	C 	0.64340 0.25000 0.29330 0.02100
C 	C 	0.43480 0.25000 0.90180 0.33000
C 	C 	0.56520 0.75000 0.09820 0.33000
C 	C 	0.43480 0.75000 0.59820 0.33000
C 	C 	0.56520 0.25000 0.40180 0.33000
C 	C 	0.09790 0.25000 0.82910 -0.07600
C 	C 	0.90210 0.75000 0.17090 -0.07600
C 	C 	0.09790 0.75000 0.67090 -0.07600
C 	C 	0.90210 0.25000 0.32910 -0.07600
C 	C 	0.76150 0.25000 0.67240 -0.10200
C 	C 	0.23850 0.75000 0.32760 -0.10200
C 	C 	0.76150 0.75000 0.82760 -0.10300
C 	C 	0.23850 0.25000 0.17240 -0.10300
C 	C 	0.19450 0.25000 0.87270 0.02300
C 	C 	0.80550 0.75000 0.12730 0.02300
C 	C 	0.19450 0.75000 0.62730 0.02300
C 	C 	0.80550 0.25000 0.37270 0.02300
C 	C 	0.00170 0.25000 0.66560 -0.09900
C 	C 	0.99830 0.75000 0.33440 -0.09900
C 	C 	0.00170 0.75000 0.83440 -0.10000
C 	C 	0.99830 0.25000 0.16560 -0.10000
C 	C 	0.00860 0.25000 0.72870 0.03700
C 	C 	0.99140 0.75000 0.27130 0.03700
C 	C 	0.00860 0.75000 0.77130 0.03700
C 	C 	0.99140 0.25000 0.22870 0.03700
C 	C 	0.25860 0.25000 0.74910 -0.09000
C 	C 	0.74140 0.75000 0.25090 -0.09000
C 	C 	0.25860 0.75000 0.75090 -0.09000
C 	C 	0.74140 0.25000 0.24910 -0.09000
C 	C 	0.30960 0.10110 0.48507 0.08700
C 	C 	0.69040 0.60110 0.51493 0.08700
C 	C 	0.30960 0.89890 0.01493 0.08900
C 	C 	0.69040 0.39890 0.98507 0.08800
C 	C 	0.69040 0.89890 0.51493 0.08700
C 	C 	0.30960 0.39890 0.48507 0.08700
C 	C 	0.69040 0.10110 0.98507 0.08900
C 	C 	0.30960 0.60110 0.01493 0.08800
C 	C 	0.87830 0.25000 0.63880 0.03000
C 	C 	0.12170 0.75000 0.36120 0.03000
C 	C 	0.87830 0.75000 0.86120 0.03100
C 	C 	0.12170 0.25000 0.13880 0.03100
C 	C 	0.16580 0.96150 0.46360 -0.05900
C 	C 	0.83420 0.46150 0.53640 -0.05900
C 	C 	0.16580 0.03850 0.03640 -0.06100
C 	C 	0.83420 0.53850 0.96360 -0.06000
C 	C 	0.83420 0.03850 0.53640 -0.05900
C 	C 	0.16580 0.53850 0.46360 -0.05900
C 	C 	0.83420 0.96150 0.96360 -0.06100
C 	C 	0.16580 0.46150 0.03640 -0.06000
C 	C 	0.76880 0.25000 0.73600 0.03000
C 	C 	0.23120 0.75000 0.26400 0.03000
C 	C 	0.76880 0.75000 0.76400 0.03000
C 	C 	0.23120 0.25000 0.23600 0.03000
C 	C 	0.03360 0.95380 0.49520 -0.09500
C 	C 	0.96640 0.45380 0.50480 -0.09500
C 	C 	0.03360 0.04620 0.00480 -0.09400
C 	C 	0.96640 0.54620 0.99520 -0.09200
C 	C 	0.96640 0.04620 0.50480 -0.09500
C 	C 	0.03360 0.54620 0.49520 -0.09500
C 	C 	0.96640 0.95380 0.99520 -0.09400
C 	C 	0.03360 0.45380 0.00480 -0.09200
C 	C 	0.62980 0.25000 0.64060 0.36300
C 	C 	0.37020 0.75000 0.35940 0.36300
C 	C 	0.62980 0.75000 0.85940 0.36300
C 	C 	0.37020 0.25000 0.14060 0.36300
C 	C 	0.32610 0.25000 0.85400 -0.08900
C 	C 	0.67390 0.75000 0.14600 -0.08900
C 	C 	0.32610 0.75000 0.64600 -0.08900
C 	C 	0.67390 0.25000 0.35400 -0.08900
C 	C 	0.89100 0.25000 0.76210 -0.06800
C 	C 	0.10900 0.75000 0.23790 -0.06800
C 	C 	0.89100 0.75000 0.73790 -0.06800
C 	C 	0.10900 0.25000 0.26210 -0.06800
C 	C 	0.38870 0.06660 0.57230 0.00900
C 	C 	0.61130 0.56660 0.42770 0.00900
C 	C 	0.38870 0.93340 0.92770 0.00700
C 	C 	0.61130 0.43340 0.07230 0.00900
C 	C 	0.61130 0.93340 0.42770 0.00900
C 	C 	0.38870 0.43340 0.57230 0.00900
C 	C 	0.61130 0.06660 0.07230 0.00700
C 	C 	0.38870 0.56660 0.92770 0.00900
C 	C 	0.31190 0.99470 0.55420 -0.01300
C 	C 	0.68810 0.49470 0.44580 -0.01300
C 	C 	0.31190 0.00530 0.94580 -0.01100
C 	C 	0.68810 0.50530 0.05420 -0.01300
C 	C 	0.68810 0.00530 0.44580 -0.01300
C 	C 	0.31190 0.50530 0.55420 -0.01300
C 	C 	0.68810 0.99470 0.05420 -0.01100
C 	C 	0.31190 0.49470 0.94580 -0.01300
S 	S 	0.92709 0.25000 0.84080 0.33600
S 	S 	0.07291 0.75000 0.15920 0.33600
S 	S 	0.92709 0.75000 0.65920 0.33600
S 	S 	0.07291 0.25000 0.34080 0.33600
N 	N 	0.38760 0.13350 0.52747 -0.27200
N 	N 	0.61240 0.63350 0.47253 -0.27200
N 	N 	0.38760 0.86650 0.97253 -0.27300
N 	N 	0.61240 0.36650 0.02747 -0.27300
N 	N 	0.61240 0.86650 0.47253 -0.27200
N 	N 	0.38760 0.36650 0.52747 -0.27200
N 	N 	0.61240 0.13350 0.02747 -0.27300
N 	N 	0.38760 0.63350 0.97253 -0.27300
N 	N 	0.25980 0.01600 0.49863 -0.11200
N 	N 	0.74020 0.51600 0.50137 -0.11200
N 	N 	0.25980 0.98400 0.00137 -0.11100
N 	N 	0.74020 0.48400 0.99863 -0.11100
N 	N 	0.74020 0.98400 0.50137 -0.11200
N 	N 	0.25980 0.48400 0.49863 -0.11200
N 	N 	0.74020 0.01600 0.99863 -0.11100
N 	N 	0.25980 0.51600 0.00137 -0.11100
O 	O 	0.55150 0.25000 0.88700 -0.29100
O 	O 	0.44850 0.75000 0.11300 -0.29100
O 	O 	0.55150 0.75000 0.61300 -0.29100
O 	O 	0.44850 0.25000 0.38700 -0.29100
O 	O 	0.88680 0.16430 0.86919 -0.23000
O 	O 	0.11320 0.66430 0.13081 -0.23100
O 	O 	0.88680 0.83570 0.63081 -0.23100
O 	O 	0.11320 0.33570 0.36919 -0.23100
O 	O 	0.11320 0.83570 0.13081 -0.23000
O 	O 	0.88680 0.33570 0.86919 -0.23100
O 	O 	0.11320 0.16430 0.36919 -0.23100
O 	O 	0.88680 0.66430 0.63081 -0.23100
O 	O 	0.63730 0.25000 0.58325 -0.46900
O 	O 	0.36270 0.75000 0.41675 -0.46900
O 	O 	0.63730 0.75000 0.91675 -0.47000
O 	O 	0.36270 0.25000 0.08325 -0.47000
O 	O 	0.38980 0.25000 0.95593 -0.45400
O 	O 	0.61020 0.75000 0.04407 -0.45400
O 	O 	0.38980 0.75000 0.54407 -0.45400
O 	O 	0.61020 0.25000 0.45593 -0.45400
O 	O 	0.52760 0.25000 0.66980 -0.31100
O 	O 	0.47240 0.75000 0.33020 -0.31100
O 	O 	0.52760 0.75000 0.83020 -0.31100
O 	O 	0.47240 0.25000 0.16980 -0.31100
