data_crystal

_cell_length_a 7.54200
_cell_length_b 17.89900
_cell_length_c 23.65940
_cell_angle_alpha 92.66070
_cell_angle_beta  90.00000
_cell_angle_gamma 90.00000

_symmetry_space_group_name_	'P 1'
_symmetry_space_group_name_H-M	'P 1'

loop_
_symmetry_equiv_pos_as_xyz
  x,y,z

loop_
_atom_site_label
_atom_site_type_symbol
_atom_site_fract_x
_atom_site_fract_y
_atom_site_fract_z
_atom_site_charge
Zn	Zn	0.47332 0.42081 0.96959 1.20000
Zn	Zn	0.79009 0.49032 0.91268 1.23200
Zn	Zn	0.47332 0.07919 0.53041 1.20000
Zn	Zn	0.79009 0.00968 0.58732 1.23100
Zn	Zn	0.52668 0.57919 0.03041 1.20000
Zn	Zn	0.20991 0.50968 0.08732 1.23200
Zn	Zn	0.52668 0.92081 0.46959 1.19900
Zn	Zn	0.20991 0.99032 0.41268 1.23000
H 	H 	0.04980 0.60910 0.78540 0.04300
H 	H 	0.23050 0.67750 0.72950 0.27300
H 	H 	0.56240 0.71220 0.86020 0.26000
H 	H 	0.55750 0.99680 0.74140 0.02700
H 	H 	0.42630 0.99410 0.82860 0.30900
H 	H 	0.99490 0.09120 0.76750 0.20900
H 	H 	0.12410 0.09190 0.67980 -0.04000
H 	H 	0.22840 0.17600 0.85810 0.21200
H 	H 	0.12150 0.29280 0.88200 -0.04700
H 	H 	0.66280 0.20150 0.92790 -0.01200
H 	H 	0.77420 0.08480 0.90620 0.30500
H 	H 	0.37610 0.64550 0.91560 -0.07600
H 	H 	0.04980 0.89090 0.71460 0.04300
H 	H 	0.23050 0.82250 0.77050 0.27300
H 	H 	0.56240 0.78780 0.63980 0.26000
H 	H 	0.55750 0.50320 0.75860 0.02600
H 	H 	0.42630 0.50590 0.67140 0.30700
H 	H 	0.99490 0.40880 0.73250 0.20900
H 	H 	0.12410 0.40810 0.82020 -0.04000
H 	H 	0.22840 0.32400 0.64190 0.21200
H 	H 	0.12150 0.20720 0.61800 -0.04700
H 	H 	0.66280 0.29850 0.57210 -0.01100
H 	H 	0.77420 0.41520 0.59380 0.30500
H 	H 	0.37610 0.85450 0.58440 -0.07600
H 	H 	0.95020 0.39090 0.21460 0.04300
H 	H 	0.76950 0.32250 0.27050 0.27300
H 	H 	0.43760 0.28780 0.13980 0.26000
H 	H 	0.44250 0.00320 0.25860 0.02700
H 	H 	0.57370 0.00590 0.17140 0.30900
H 	H 	0.00510 0.90880 0.23250 0.20900
H 	H 	0.87590 0.90810 0.32020 -0.04000
H 	H 	0.77160 0.82400 0.14190 0.21200
H 	H 	0.87850 0.70720 0.11800 -0.04700
H 	H 	0.33720 0.79850 0.07210 -0.01200
H 	H 	0.22580 0.91520 0.09380 0.30500
H 	H 	0.62390 0.35450 0.08440 -0.07600
H 	H 	0.95020 0.10910 0.28540 0.04300
H 	H 	0.76950 0.17750 0.22950 0.27300
H 	H 	0.43760 0.21220 0.36020 0.26000
H 	H 	0.44250 0.49680 0.24140 0.02600
H 	H 	0.57370 0.49410 0.32860 0.30700
H 	H 	0.00510 0.59120 0.26750 0.20900
H 	H 	0.87590 0.59190 0.17980 -0.04000
H 	H 	0.77160 0.67600 0.35810 0.21200
H 	H 	0.87850 0.79280 0.38200 -0.04700
H 	H 	0.33720 0.70150 0.42790 -0.01100
H 	H 	0.22580 0.58480 0.40620 0.30500
H 	H 	0.62390 0.14550 0.41560 -0.07600
C 	C 	0.80220 0.33520 0.92020 0.48200
C 	C 	0.06710 0.58020 0.89350 0.42400
C 	C 	0.19030 0.62200 0.85700 -0.26000
C 	C 	0.15160 0.63100 0.80090 0.29400
C 	C 	0.26020 0.67170 0.76720 -0.38200
C 	C 	0.41340 0.70420 0.78900 0.47500
C 	C 	0.45750 0.69270 0.84510 -0.38500
C 	C 	0.64990 0.80670 0.78300 1.01900
C 	C 	0.44120 0.04500 0.64480 0.48400
C 	C 	0.35450 0.04500 0.70090 -0.29300
C 	C 	0.44360 0.01580 0.74650 0.28500
C 	C 	0.36550 0.01440 0.79880 -0.39300
C 	C 	0.19710 0.04320 0.80750 0.45700
C 	C 	0.10860 0.07190 0.76230 -0.39400
C 	C 	0.18630 0.07260 0.70980 0.28200
C 	C 	0.09920 0.04120 0.86500 -0.57800
C 	C 	0.96080 0.97760 0.85900 1.00900
C 	C 	0.22340 0.02370 0.91420 1.00200
C 	C 	0.01460 0.11750 0.87970 0.48200
C 	C 	0.11420 0.18100 0.87260 -0.40700
C 	C 	0.05030 0.25100 0.88630 0.29800
C 	C 	0.87760 0.25940 0.90670 -0.29500
C 	C 	0.77760 0.19660 0.91390 0.32200
C 	C 	0.84420 0.12660 0.90080 -0.40100
C 	C 	0.34580 0.65240 0.87810 0.30500
C 	C 	0.80220 0.16480 0.57980 0.48200
C 	C 	0.06710 0.91980 0.60650 0.42400
C 	C 	0.19030 0.87800 0.64300 -0.25900
C 	C 	0.15160 0.86900 0.69910 0.29400
C 	C 	0.26020 0.82830 0.73280 -0.38200
C 	C 	0.41340 0.79580 0.71100 0.47500
C 	C 	0.45750 0.80730 0.65490 -0.38500
C 	C 	0.64990 0.69330 0.71700 1.01900
C 	C 	0.44120 0.45500 0.85520 0.48400
C 	C 	0.35450 0.45500 0.79910 -0.29300
C 	C 	0.44360 0.48420 0.75350 0.28600
C 	C 	0.36550 0.48560 0.70120 -0.39100
C 	C 	0.19710 0.45680 0.69250 0.45700
C 	C 	0.10860 0.42810 0.73770 -0.39400
C 	C 	0.18630 0.42740 0.79020 0.28200
C 	C 	0.09920 0.45880 0.63500 -0.57700
C 	C 	0.96080 0.52240 0.64100 1.00800
C 	C 	0.22340 0.47630 0.58580 1.00300
C 	C 	0.01460 0.38250 0.62030 0.48100
C 	C 	0.11420 0.31900 0.62740 -0.40600
C 	C 	0.05030 0.24900 0.61370 0.29800
C 	C 	0.87760 0.24060 0.59330 -0.29400
C 	C 	0.77760 0.30340 0.58610 0.32100
C 	C 	0.84420 0.37340 0.59920 -0.40000
C 	C 	0.34580 0.84760 0.62190 0.30500
C 	C 	0.19780 0.66480 0.07980 0.48200
C 	C 	0.93290 0.41980 0.10650 0.42400
C 	C 	0.80970 0.37800 0.14300 -0.26000
C 	C 	0.84840 0.36900 0.19910 0.29400
C 	C 	0.73980 0.32830 0.23280 -0.38200
C 	C 	0.58660 0.29580 0.21100 0.47500
C 	C 	0.54250 0.30730 0.15490 -0.38500
C 	C 	0.35010 0.19330 0.21700 1.01900
C 	C 	0.55880 0.95500 0.35520 0.48400
C 	C 	0.64550 0.95500 0.29910 -0.29300
C 	C 	0.55640 0.98420 0.25350 0.28500
C 	C 	0.63450 0.98560 0.20120 -0.39300
C 	C 	0.80290 0.95680 0.19250 0.45700
C 	C 	0.89140 0.92810 0.23770 -0.39400
C 	C 	0.81370 0.92740 0.29020 0.28200
C 	C 	0.90080 0.95880 0.13500 -0.57800
C 	C 	0.03920 0.02240 0.14100 1.00900
C 	C 	0.77660 0.97630 0.08580 1.00200
C 	C 	0.98540 0.88250 0.12030 0.48200
C 	C 	0.88580 0.81900 0.12740 -0.40700
C 	C 	0.94970 0.74900 0.11370 0.29800
C 	C 	0.12240 0.74060 0.09330 -0.29500
C 	C 	0.22240 0.80340 0.08610 0.32200
C 	C 	0.15580 0.87340 0.09920 -0.40100
C 	C 	0.65420 0.34760 0.12190 0.30500
C 	C 	0.19780 0.83520 0.42020 0.48200
C 	C 	0.93290 0.08020 0.39350 0.42400
C 	C 	0.80970 0.12200 0.35700 -0.25900
C 	C 	0.84840 0.13100 0.30090 0.29400
C 	C 	0.73980 0.17170 0.26720 -0.38200
C 	C 	0.58660 0.20420 0.28900 0.47500
C 	C 	0.54250 0.19270 0.34510 -0.38500
C 	C 	0.35010 0.30670 0.28300 1.01900
C 	C 	0.55880 0.54500 0.14480 0.48400
C 	C 	0.64550 0.54500 0.20090 -0.29300
C 	C 	0.55640 0.51580 0.24650 0.28600
C 	C 	0.63450 0.51440 0.29880 -0.39100
C 	C 	0.80290 0.54320 0.30750 0.45700
C 	C 	0.89140 0.57190 0.26230 -0.39400
C 	C 	0.81370 0.57260 0.20980 0.28200
C 	C 	0.90080 0.54120 0.36500 -0.57700
C 	C 	0.03920 0.47760 0.35900 1.00800
C 	C 	0.77660 0.52370 0.41420 1.00300
C 	C 	0.98540 0.61750 0.37970 0.48100
C 	C 	0.88580 0.68100 0.37260 -0.40600
C 	C 	0.94970 0.75100 0.38630 0.29800
C 	C 	0.12240 0.75940 0.40670 -0.29400
C 	C 	0.22240 0.69660 0.41390 0.32100
C 	C 	0.15580 0.62660 0.40080 -0.40000
C 	C 	0.65420 0.15240 0.37810 0.30500
C 	C 	0.52900 0.75000 0.75000 -0.58300
C 	C 	0.47100 0.25000 0.25000 -0.58300
O 	O 	0.65490 0.33882 0.94342 -0.48700
O 	O 	0.89490 0.39046 0.90716 -0.48400
O 	O 	0.92360 0.55898 0.87078 -0.43700
O 	O 	0.10500 0.57018 0.94328 -0.34000
O 	O 	0.59050 0.01591 0.64101 -0.50500
O 	O 	0.35970 0.07252 0.60472 -0.50200
O 	O 	0.67300 0.49635 0.98705 -0.66400
O 	O 	0.65490 0.16118 0.55658 -0.48700
O 	O 	0.89490 0.10954 0.59284 -0.48400
O 	O 	0.92360 0.94102 0.62922 -0.43700
O 	O 	0.10500 0.92982 0.55672 -0.34000
O 	O 	0.59050 0.48409 0.85899 -0.50500
O 	O 	0.35970 0.42748 0.89528 -0.50300
O 	O 	0.67300 0.00365 0.51295 -0.66400
O 	O 	0.34510 0.66118 0.05658 -0.48700
O 	O 	0.10510 0.60954 0.09284 -0.48400
O 	O 	0.07640 0.44102 0.12922 -0.43700
O 	O 	0.89500 0.42982 0.05672 -0.34000
O 	O 	0.40950 0.98409 0.35899 -0.50500
O 	O 	0.64030 0.92748 0.39528 -0.50200
O 	O 	0.32700 0.50365 0.01295 -0.66400
O 	O 	0.34510 0.83882 0.44342 -0.48700
O 	O 	0.10510 0.89046 0.40716 -0.48400
O 	O 	0.07640 0.05898 0.37078 -0.43700
O 	O 	0.89500 0.07018 0.44328 -0.34000
O 	O 	0.40950 0.51591 0.14101 -0.50500
O 	O 	0.64030 0.57252 0.10472 -0.50300
O 	O 	0.32700 0.99635 0.48705 -0.66400
F 	F 	0.55770 0.84685 0.82115 -0.46600
F 	F 	0.78190 0.77463 0.81053 -0.45000
F 	F 	0.72370 0.85440 0.74930 -0.46800
F 	F 	0.83010 0.99467 0.82417 -0.49000
F 	F 	0.03450 0.91478 0.83788 -0.43900
F 	F 	0.88700 0.96119 0.90789 -0.40400
F 	F 	0.36440 0.06829 0.91669 -0.48600
F 	F 	0.28450 0.95353 0.91173 -0.41600
F 	F 	0.14290 0.03314 0.96384 -0.39700
F 	F 	0.55770 0.65315 0.67885 -0.46600
F 	F 	0.78190 0.72537 0.68947 -0.45000
F 	F 	0.72370 0.64560 0.75070 -0.46800
F 	F 	0.83010 0.50533 0.67583 -0.49100
F 	F 	0.03450 0.58522 0.66212 -0.43900
F 	F 	0.88700 0.53881 0.59211 -0.40500
F 	F 	0.36440 0.43171 0.58331 -0.48600
F 	F 	0.28450 0.54647 0.58827 -0.41700
F 	F 	0.14290 0.46686 0.53616 -0.39600
F 	F 	0.44230 0.15315 0.17885 -0.46600
F 	F 	0.21810 0.22537 0.18947 -0.45000
F 	F 	0.27630 0.14560 0.25070 -0.46800
F 	F 	0.16990 0.00533 0.17583 -0.49000
F 	F 	0.96550 0.08522 0.16212 -0.43900
F 	F 	0.11300 0.03881 0.09211 -0.40400
F 	F 	0.63560 0.93171 0.08331 -0.48600
F 	F 	0.71550 0.04647 0.08827 -0.41600
F 	F 	0.85710 0.96686 0.03616 -0.39700
F 	F 	0.44230 0.34685 0.32115 -0.46600
F 	F 	0.21810 0.27463 0.31053 -0.45000
F 	F 	0.27630 0.35440 0.24930 -0.46800
F 	F 	0.16990 0.49467 0.32417 -0.49100
F 	F 	0.96550 0.41478 0.33788 -0.43900
F 	F 	0.11300 0.46119 0.40789 -0.40500
F 	F 	0.63560 0.56829 0.41669 -0.48600
F 	F 	0.71550 0.45353 0.41173 -0.41700
F 	F 	0.85710 0.53314 0.46384 -0.39600
