data_crystal

_cell_length_a 10.91750
_cell_length_b 21.46990
_cell_length_c 21.46990
_cell_angle_alpha 117.18800
_cell_angle_beta  99.75880
_cell_angle_gamma 99.75880

_symmetry_space_group_name_	'P 1'
_symmetry_space_group_name_H-M	'P 1'

loop_
_symmetry_equiv_pos_as_xyz
  x,y,z

loop_
_atom_site_label
_atom_site_type_symbol
_atom_site_fract_x
_atom_site_fract_y
_atom_site_fract_z
_atom_site_charge
Zn	Zn	0.27628 0.00016 0.91378 1.20800
Zn	Zn	0.36250 0.08622 0.08638 1.21500
Zn	Zn	0.27612 0.91362 0.99984 1.21200
Zn	Zn	0.53927 0.00000 -0.00000 1.22700
H 	H 	0.84210 0.00000 0.75650 0.08600
H 	H 	0.48830 0.99350 0.65410 0.09600
H 	H 	0.41170 0.99960 0.75150 0.03000
H 	H 	0.76550 0.00630 0.85400 0.01400
H 	H 	0.68740 0.89630 0.57280 0.11200
H 	H 	0.97110 0.12930 0.55280 0.07500
H 	H 	0.98940 0.24260 0.65280 0.04700
H 	H 	0.78310 0.14060 0.73680 0.05500
H 	H 	0.17770 0.99820 0.42920 0.09800
H 	H 	0.66870 0.00930 0.44330 0.01800
H 	H 	0.55070 0.01140 0.34280 0.10200
H 	H 	0.86220 0.00460 0.26320 0.11700
H 	H 	0.02970 0.88810 0.24380 0.15000
H 	H 	0.15260 0.10910 0.35850 0.16200
H 	H 	0.25240 0.10900 0.27010 -0.07700
H 	H 	0.12960 0.88810 0.15560 -0.08000
H 	H 	0.23470 0.00950 0.60420 -0.03900
H 	H 	0.17710 0.93970 0.52220 -0.03200
H 	H 	0.55790 0.97540 0.60680 0.04300
H 	H 	0.51970 0.08750 0.67710 0.05100
H 	H 	0.35930 0.12340 0.62530 0.05000
H 	H 	0.27540 0.93520 0.43310 0.04000
H 	H 	0.43570 0.89920 0.48470 0.04300
H 	H 	0.91740 0.89550 0.42540 -0.01800
H 	H 	0.98250 0.87420 0.48240 -0.00900
H 	H 	0.02110 0.78260 0.36460 0.02100
H 	H 	0.68750 0.76990 0.42290 0.04600
H 	H 	0.78110 0.74300 0.51070 0.04600
H 	H 	0.99480 0.73610 0.52570 0.03300
H 	H 	0.11470 0.75570 0.45240 0.06100
H 	H 	0.08560 0.24350 0.24350 0.08000
H 	H 	0.83420 0.34590 0.33940 0.08500
H 	H 	0.66020 0.24850 0.24810 0.03800
H 	H 	0.91150 0.14600 0.15230 0.02600
H 	H 	0.11460 0.42720 0.32350 0.11800
H 	H 	0.41830 0.44720 0.57650 0.07200
H 	H 	0.33660 0.34720 0.58980 0.04300
H 	H 	0.04630 0.26320 0.40380 0.05100
H 	H 	0.74850 0.57080 0.56900 0.07100
H 	H 	0.22540 0.55670 0.56600 0.02100
H 	H 	0.20790 0.65720 0.66860 0.10500
H 	H 	0.59900 0.73680 0.74140 0.11800
H 	H 	0.78590 0.75620 0.64430 0.13400
H 	H 	0.79410 0.64150 0.75060 0.14200
H 	H 	0.98230 0.72990 0.83890 -0.06300
H 	H 	0.97400 0.84440 0.73250 -0.06000
H 	H 	0.63050 0.39580 0.40530 0.01600
H 	H 	0.65490 0.47780 0.41750 0.00900
H 	H 	0.95110 0.39320 0.36860 0.07500
H 	H 	0.84260 0.32290 0.41040 0.02400
H 	H 	0.73400 0.37470 0.49810 0.07600
H 	H 	0.84230 0.56690 0.50210 0.06500
H 	H 	0.95100 0.51530 0.41450 0.02000
H 	H 	0.49200 0.57460 0.47010 -0.02900
H 	H 	0.50010 0.51760 0.39180 -0.01600
H 	H 	0.65650 0.63540 0.41800 0.04600
H 	H 	0.26460 0.57710 0.34700 0.05400
H 	H 	0.27040 0.48930 0.23230 0.03200
H 	H 	0.46910 0.47430 0.21040 0.04900
H 	H 	0.66230 0.54760 0.30330 0.04100
H 	H 	0.84210 0.75650 -0.00000 0.07000
H 	H 	0.49480 0.66060 0.00650 0.08100
H 	H 	0.41210 0.75190 0.00040 0.04300
H 	H 	0.75920 0.84770 0.99370 0.04000
H 	H 	0.79110 0.67650 0.10370 0.11800
H 	H 	0.84180 0.42350 0.87070 0.07600
H 	H 	0.74680 0.41020 0.75740 0.04300
H 	H 	0.64250 0.59620 0.85940 0.05100
H 	H 	0.17950 0.43100 0.00180 0.04700
H 	H 	0.65940 0.43400 0.99070 0.01000
H 	H 	0.53930 0.33140 0.98860 0.10900
H 	H 	0.85760 0.25860 0.99540 0.12600
H 	H 	0.14160 0.35570 0.11190 0.15700
H 	H 	0.04350 0.24940 0.89090 0.16700
H 	H 	0.14340 0.16110 0.89100 -0.08600
H 	H 	0.24150 0.26750 0.11190 -0.08700
H 	H 	0.22520 0.59470 0.99050 -0.02400
H 	H 	0.23740 0.58250 0.06030 -0.01700
H 	H 	0.58250 0.63140 0.02460 0.05000
H 	H 	0.43220 0.58960 0.91250 0.04500
H 	H 	0.23590 0.50190 0.87660 0.05400
H 	H 	0.34020 0.49790 0.06480 0.04500
H 	H 	0.53650 0.58550 0.10080 0.03900
H 	H 	0.02190 0.52990 0.10450 -0.02100
H 	H 	0.10830 0.60820 0.12580 -0.00800
H 	H 	0.23850 0.58200 0.21740 0.04900
H 	H 	0.91760 0.65300 0.23010 0.07300
H 	H 	0.03810 0.76770 0.25700 0.02500
H 	H 	0.25870 0.78960 0.26390 0.05400
H 	H 	0.35900 0.69670 0.24430 0.03700
C 	C 	0.75500 0.00000 0.75500 -0.17100
C 	C 	0.67200 0.99600 0.69600 0.10900
C 	C 	0.54460 0.99610 0.69470 -0.15900
C 	C 	0.49910 0.99970 0.75260 0.10100
C 	C 	0.58120 0.00360 0.81200 -0.14100
C 	C 	0.71000 0.00400 0.81400 0.08000
C 	C 	0.50530 0.00100 0.86890 0.44400
C 	C 	0.25400 0.99900 0.15900 0.83700
C 	C 	0.85600 0.00100 0.52600 -0.16300
C 	C 	0.78900 0.93700 0.52100 0.39500
C 	C 	0.73400 0.94100 0.57700 -0.22300
C 	C 	0.74400 0.00800 0.63600 0.01400
C 	C 	0.81100 0.07200 0.64100 -0.02600
C 	C 	0.86640 0.06840 0.58580 0.08900
C 	C 	0.93300 0.13200 0.59000 -0.08600
C 	C 	0.94400 0.19900 0.64900 -0.03400
C 	C 	0.88800 0.20300 0.70500 0.01100
C 	C 	0.82200 0.13900 0.70000 -0.06400
C 	C 	0.90520 0.00420 0.47240 0.03200
C 	C 	0.03320 0.00120 0.47840 0.15500
C 	C 	0.09100 -0.00000 0.42500 -0.12600
C 	C 	0.02080 0.00180 0.36560 -0.12400
C 	C 	0.89250 0.00420 0.35930 0.12400
C 	C 	0.83600 0.00600 0.41300 -0.07500
C 	C 	0.70800 0.00900 0.40700 0.04400
C 	C 	0.63800 0.00900 0.34700 -0.16900
C 	C 	0.69500 0.00800 0.29400 0.19400
C 	C 	0.82270 0.00470 0.29940 -0.20600
C 	C 	0.07500 0.93290 0.24910 -0.34700
C 	C 	0.08240 0.99940 0.30980 0.28200
C 	C 	0.14780 0.06480 0.31760 -0.37700
C 	C 	0.20700 0.06420 0.26480 0.34900
C 	C 	0.20000 0.99850 0.20450 -0.58100
C 	C 	0.13450 0.93280 0.19670 0.36700
C 	C 	0.20200 0.99300 0.55200 0.24600
C 	C 	0.49400 0.99100 0.58700 -0.03000
C 	C 	0.47000 0.05600 0.62700 -0.07200
C 	C 	0.37900 0.07900 0.59800 -0.03300
C 	C 	0.30200 0.03300 0.52400 -0.04700
C 	C 	0.32500 0.96600 0.48300 -0.03100
C 	C 	0.42000 0.94500 0.51300 -0.03700
C 	C 	0.89900 0.86700 0.45000 0.24000
C 	C 	0.97000 0.77500 0.39500 0.00700
C 	C 	0.84800 0.77900 0.38500 -0.05000
C 	C 	0.77400 0.76600 0.42800 -0.00900
C 	C 	0.83000 0.75000 0.48000 -0.05900
C 	C 	0.95300 0.74800 0.49100 0.00800
C 	C 	0.02800 0.75900 0.44700 -0.09300
C 	C 	-0.00000 0.24500 0.24500 -0.14200
C 	C 	0.97600 0.30400 0.30000 0.06800
C 	C 	0.84990 0.30530 0.30140 -0.13200
C 	C 	0.74650 0.24740 0.24710 0.05300
C 	C 	0.76920 0.18800 0.19160 -0.10500
C 	C 	0.89600 0.18600 0.19000 0.06800
C 	C 	0.63640 0.13110 0.13210 0.46100
C 	C 	0.09500 0.84100 0.84000 0.77000
C 	C 	0.33000 0.47400 0.47500 -0.14200
C 	C 	0.26800 0.47900 0.41600 0.37800
C 	C 	0.15700 0.42300 0.36400 -0.25600
C 	C 	0.10800 0.36400 0.37200 0.05100
C 	C 	0.17000 0.35900 0.43100 -0.03700
C 	C 	0.28060 0.41420 0.48260 0.08700
C 	C 	0.34300 0.41000 0.54200 -0.08900
C 	C 	0.29500 0.35100 0.55000 -0.03200
C 	C 	0.18300 0.29500 0.49800 0.00400
C 	C 	0.12200 0.30000 0.43900 -0.05700
C 	C 	0.43280 0.52760 0.53180 0.02500
C 	C 	0.55480 0.52160 0.52280 0.14600
C 	C 	0.66600 0.57500 0.57500 -0.09900
C 	C 	0.65520 0.63440 0.63620 -0.08300
C 	C 	0.53320 0.64070 0.64490 0.10300
C 	C 	0.42300 0.58700 0.59300 -0.06300
C 	C 	0.30100 0.59300 0.60200 0.04100
C 	C 	0.29100 0.65300 0.66200 -0.16800
C 	C 	0.40100 0.70600 0.71400 0.20500
C 	C 	0.52330 0.70060 0.70530 -0.19800
C 	C 	0.82590 0.75090 0.68380 -0.30000
C 	C 	0.77260 0.69020 0.68960 0.21000
C 	C 	0.83020 0.68240 0.74720 -0.31100
C 	C 	0.94220 0.73520 0.79940 0.32200
C 	C 	0.99550 0.79550 0.79400 -0.53500
C 	C 	0.93780 0.80330 0.73610 0.32200
C 	C 	0.65000 0.44800 0.44100 0.11000
C 	C 	0.90700 0.41300 0.40400 -0.12600
C 	C 	0.84300 0.37300 0.42900 0.02900
C 	C 	0.78100 0.40200 0.48100 -0.10600
C 	C 	0.77800 0.47600 0.50900 0.04600
C 	C 	0.84200 0.51700 0.48300 -0.11500
C 	C 	0.90700 0.48700 0.43200 0.03500
C 	C 	0.44900 0.55000 0.41700 0.23900
C 	C 	0.57500 0.60500 0.38000 -0.05700
C 	C 	0.46300 0.61500 0.39400 -0.02400
C 	C 	0.34600 0.57200 0.33800 -0.04000
C 	C 	0.35000 0.52000 0.27000 -0.01900
C 	C 	0.46200 0.50900 0.25700 -0.04700
C 	C 	0.58100 0.55300 0.31200 -0.02500
C 	C 	0.75500 0.75500 -0.00000 -0.07700
C 	C 	0.67600 0.70000 0.00400 0.04900
C 	C 	0.54850 0.69860 0.00390 -0.11600
C 	C 	0.49940 0.75290 0.00030 0.05900
C 	C 	0.57760 0.80840 0.99640 -0.10000
C 	C 	0.70600 0.81000 0.99600 0.01200
C 	C 	0.50430 0.86790 0.99900 0.43500
C 	C 	0.25500 0.16000 0.00100 0.84500
C 	C 	0.85500 0.52500 0.99900 -0.17500
C 	C 	0.85200 0.58400 0.06300 0.39500
C 	C 	0.79300 0.63600 0.05900 -0.23700
C 	C 	0.73600 0.62800 0.99200 0.03700
C 	C 	0.73900 0.56900 0.92800 -0.03900
C 	C 	0.79800 0.51740 0.93160 0.10000
C 	C 	0.80100 0.45800 0.86800 -0.09500
C 	C 	0.74500 0.45000 0.80100 -0.02800
C 	C 	0.68500 0.50200 0.79700 0.00500
C 	C 	0.68300 0.56100 0.86100 -0.05600
C 	C 	0.90100 0.46820 0.99580 0.07200
C 	C 	0.03200 0.47720 0.99880 0.08700
C 	C 	0.09100 0.42500 -0.00000 -0.00400
C 	C 	0.01900 0.36380 0.99820 -0.18900
C 	C 	0.88830 0.35510 0.99580 0.16500
C 	C 	0.83000 0.40700 0.99400 -0.11000
C 	C 	0.69900 0.39800 0.99100 0.06800
C 	C 	0.62900 0.33800 0.99100 -0.18700
C 	C 	0.68700 0.28600 0.99200 0.21100
C 	C 	0.81800 0.29470 0.99530 -0.23200
C 	C 	0.14210 0.31620 0.06710 -0.37000
C 	C 	0.08300 0.31040 0.00060 0.30700
C 	C 	0.08300 0.25280 0.93520 -0.39600
C 	C 	0.14280 0.20060 0.93580 0.37200
C 	C 	0.20150 0.20600 0.00150 -0.60500
C 	C 	0.20170 0.26390 0.06720 0.38600
C 	C 	0.20900 0.55900 0.00700 0.20300
C 	C 	0.50300 0.59600 0.00900 -0.04600
C 	C 	0.41400 0.57100 0.94400 -0.05200
C 	C 	0.30000 0.51900 0.92100 -0.04900
C 	C 	0.26900 0.49100 0.96700 -0.02600
C 	C 	0.35900 0.51700 0.03400 -0.04600
C 	C 	0.47500 0.56800 0.05500 -0.02500
C 	C 	0.03200 0.58300 0.13300 0.21800
C 	C 	0.19500 0.62000 0.22500 -0.06800
C 	C 	0.06900 0.60600 0.22100 -0.01000
C 	C 	0.00800 0.66200 0.23400 -0.07200
C 	C 	0.08000 0.73000 0.25000 0.00200
C 	C 	0.20500 0.74300 0.25200 -0.06200
C 	C 	0.26900 0.68800 0.24100 -0.01400
Cl	Cl	0.57800 0.99500 0.20500 -0.33100
Cl	Cl	0.37300 0.79500 0.79000 -0.35800
Cl	Cl	0.58300 0.21000 0.00500 -0.34500
O 	O 	0.39820 0.00030 0.85730 -0.53900
O 	O 	0.58540 0.99950 0.91870 -0.47500
O 	O 	0.24930 0.10160 0.94830 -0.61100
O 	O 	0.30180 0.15440 0.05300 -0.59600
O 	O 	0.11600 0.01800 0.53900 -0.30700
O 	O 	0.82900 0.89200 0.48800 -0.40500
O 	O 	0.54090 0.14270 0.14300 -0.53300
O 	O 	0.66670 0.08130 0.08080 -0.49700
O 	O 	0.30100 0.05170 0.15330 -0.60700
O 	O 	0.24880 0.94700 0.10140 -0.58500
O 	O 	0.57700 0.46100 0.47900 -0.25500
O 	O 	0.34100 0.51200 0.40400 -0.40500
O 	O 	0.39790 0.85700 0.99970 -0.53100
O 	O 	0.58590 0.91920 0.00050 -0.46300
O 	O 	0.14770 0.84670 0.89840 -0.58000
O 	O 	0.14740 0.89860 0.84560 -0.57500
O 	O 	0.09800 0.52100 0.98200 -0.27700
O 	O 	0.93700 0.59600 0.10800 -0.39200
O 	O 	0.36467 0.00000 -0.00000 -0.94700
