data_crystal

_cell_length_a 6.79100
_cell_length_b 9.60360
_cell_length_c 34.11300
_cell_angle_alpha 90.00000
_cell_angle_beta  90.00000
_cell_angle_gamma 106.42500

_symmetry_space_group_name_	'P 1'
_symmetry_space_group_name_H-M	'P 1'

loop_
_symmetry_equiv_pos_as_xyz
  x,y,z

loop_
_atom_site_label
_atom_site_type_symbol
_atom_site_fract_x
_atom_site_fract_y
_atom_site_fract_z
_atom_site_charge
Zn	Zn	0.70933 0.67375 0.37498 1.20500
Zn	Zn	0.79067 0.32625 0.37498 1.20200
Zn	Zn	0.20933 0.17375 0.87498 1.20000
Zn	Zn	0.29067 0.82625 0.87498 1.20600
Zn	Zn	0.29067 0.32625 0.62502 1.20300
Zn	Zn	0.20933 0.67375 0.62502 1.20400
Zn	Zn	0.79067 0.82625 0.12502 1.20300
Zn	Zn	0.70933 0.17375 0.12502 1.20000
H 	H 	0.86150 0.71680 0.49150 0.04500
H 	H 	0.63850 0.28320 0.49150 0.03900
H 	H 	0.36150 0.21680 0.99150 0.04100
H 	H 	0.13850 0.78320 0.99150 0.03300
H 	H 	0.13850 0.28320 0.50850 0.03900
H 	H 	0.36150 0.71680 0.50850 0.04600
H 	H 	0.63850 0.78320 0.00850 0.03400
H 	H 	0.86150 0.21680 0.00850 0.04000
H 	H 	0.87280 0.71930 0.56010 0.04600
H 	H 	0.62720 0.28070 0.56010 0.03800
H 	H 	0.37280 0.21930 0.06010 0.04000
H 	H 	0.12720 0.78070 0.06010 0.03700
H 	H 	0.12720 0.28070 0.43990 0.04000
H 	H 	0.37280 0.71930 0.43990 0.04500
H 	H 	0.62720 0.78070 0.93990 0.03500
H 	H 	0.87280 0.21930 0.93990 0.04200
H 	H 	0.54230 0.29860 0.25950 0.04200
H 	H 	0.95770 0.70140 0.25950 0.04300
H 	H 	0.04230 0.79860 0.75950 0.03400
H 	H 	0.45770 0.20140 0.75950 0.04300
H 	H 	0.45770 0.70140 0.74050 0.04800
H 	H 	0.04230 0.29860 0.74050 0.03700
H 	H 	0.95770 0.20140 0.24050 0.03900
H 	H 	0.54230 0.79860 0.24050 0.03900
H 	H 	0.54150 0.30550 0.19050 0.03700
H 	H 	0.95850 0.69450 0.19050 0.03500
H 	H 	0.04150 0.80550 0.69050 0.02600
H 	H 	0.45850 0.19450 0.69050 0.03400
H 	H 	0.45850 0.69450 0.80950 0.04000
H 	H 	0.04150 0.30550 0.80950 0.03300
H 	H 	0.95850 0.19450 0.30950 0.02900
H 	H 	0.54150 0.80550 0.30950 0.03100
C 	C 	0.75000 0.50000 0.44150 0.38000
C 	C 	0.25000 0.00000 0.94150 0.34700
C 	C 	0.25000 0.50000 0.55850 0.38000
C 	C 	0.75000 0.00000 0.05850 0.34700
C 	C 	0.75000 0.50000 0.48590 -0.10000
C 	C 	0.25000 0.00000 0.98590 -0.13500
C 	C 	0.25000 0.50000 0.51410 -0.10000
C 	C 	0.75000 0.00000 0.01410 -0.13400
C 	C 	0.81730 0.62820 0.50570 0.01800
C 	C 	0.68270 0.37180 0.50570 0.01700
C 	C 	0.31730 0.12820 0.00570 0.02500
C 	C 	0.18270 0.87180 0.00570 0.05700
C 	C 	0.18270 0.37180 0.49430 0.01800
C 	C 	0.31730 0.62820 0.49430 0.01800
C 	C 	0.68270 0.87180 0.99430 0.05500
C 	C 	0.81730 0.12820 0.99430 0.02500
C 	C 	0.82170 0.63040 0.54630 -0.06200
C 	C 	0.67830 0.36960 0.54630 -0.06300
C 	C 	0.32170 0.13040 0.04630 -0.05900
C 	C 	0.17830 0.86960 0.04630 -0.02900
C 	C 	0.17830 0.36960 0.45370 -0.06300
C 	C 	0.32170 0.63040 0.45370 -0.06200
C 	C 	0.67830 0.86960 0.95370 -0.03100
C 	C 	0.82170 0.13040 0.95370 -0.06000
C 	C 	0.75000 0.50000 0.56660 -0.03600
C 	C 	0.25000 0.00000 0.06660 -0.06800
C 	C 	0.25000 0.50000 0.43340 -0.03600
C 	C 	0.75000 -0.00000 0.93340 -0.06700
C 	C 	0.75000 0.50000 0.60900 0.10700
C 	C 	0.25000 0.00000 0.10900 0.08200
C 	C 	0.25000 0.50000 0.39100 0.10700
C 	C 	0.75000 0.00000 0.89100 0.08300
C 	C 	0.75000 0.50000 0.31020 0.42300
C 	C 	0.25000 0.00000 0.81020 0.38500
C 	C 	0.25000 0.50000 0.68980 0.42300
C 	C 	0.75000 0.00000 0.18980 0.38500
C 	C 	0.75000 0.50000 0.26620 -0.11200
C 	C 	0.25000 0.00000 0.76620 -0.13800
C 	C 	0.25000 0.50000 0.73380 -0.11200
C 	C 	0.75000 0.00000 0.23380 -0.13900
C 	C 	0.62250 0.37950 0.24620 0.01900
C 	C 	0.87750 0.62050 0.24620 0.01600
C 	C 	0.12250 0.87950 0.74620 0.04500
C 	C 	0.37750 0.12050 0.74620 0.01600
C 	C 	0.37750 0.62050 0.75380 0.01800
C 	C 	0.12250 0.37950 0.75380 0.01700
C 	C 	0.87750 0.12050 0.25380 0.01500
C 	C 	0.62250 0.87950 0.25380 0.04700
C 	C 	0.62350 0.38040 0.20460 -0.06700
C 	C 	0.87650 0.61960 0.20460 -0.06600
C 	C 	0.12350 0.88040 0.70460 -0.03100
C 	C 	0.37650 0.11960 0.70460 -0.06000
C 	C 	0.37650 0.61960 0.79540 -0.06600
C 	C 	0.12350 0.38040 0.79540 -0.06800
C 	C 	0.87650 0.11960 0.29540 -0.06100
C 	C 	0.62350 0.88040 0.29540 -0.03000
C 	C 	0.75000 0.50000 0.14130 0.12000
C 	C 	0.25000 -0.00000 0.64130 0.09900
C 	C 	0.25000 0.50000 0.85870 0.12100
C 	C 	0.75000 0.00000 0.35870 0.09900
C 	C 	0.75000 0.50000 0.18520 -0.03400
C 	C 	0.25000 0.00000 0.68520 -0.06800
C 	C 	0.25000 0.50000 0.81480 -0.03300
C 	C 	0.75000 0.00000 0.31480 -0.06800
N 	N 	0.59380 0.43140 0.63220 -0.23900
N 	N 	0.90620 0.56860 0.63220 -0.23500
N 	N 	0.09380 0.93140 0.13220 -0.21400
N 	N 	0.40620 0.06860 0.13220 -0.24000
N 	N 	0.40620 0.56860 0.36780 -0.23800
N 	N 	0.09380 0.43140 0.36780 -0.23500
N 	N 	0.90620 0.06860 0.86780 -0.23600
N 	N 	0.59380 0.93140 0.86780 -0.21900
N 	N 	0.65620 0.45780 0.66980 -0.06300
N 	N 	0.84380 0.54220 0.66980 -0.06000
N 	N 	0.15620 0.95780 0.16980 -0.03900
N 	N 	0.34380 0.04220 0.16980 -0.08000
N 	N 	0.34380 0.54220 0.33020 -0.06200
N 	N 	0.15620 0.45780 0.33020 -0.06000
N 	N 	0.84380 0.04220 0.83020 -0.07600
N 	N 	0.65620 0.95780 0.83020 -0.04400
N 	N 	0.76170 0.61570 0.11930 -0.24700
N 	N 	0.73830 0.38430 0.11930 -0.24700
N 	N 	0.26170 0.11570 0.61930 -0.24600
N 	N 	0.23830 0.88430 0.61930 -0.23100
N 	N 	0.23830 0.38430 0.88070 -0.24800
N 	N 	0.26170 0.61570 0.88070 -0.24600
N 	N 	0.73830 0.88430 0.38070 -0.23100
N 	N 	0.76170 0.11570 0.38070 -0.24700
N 	N 	0.74620 0.56520 0.08250 -0.06400
N 	N 	0.75380 0.43480 0.08250 -0.06400
N 	N 	0.24620 0.06520 0.58250 -0.08000
N 	N 	0.25380 0.93480 0.58250 -0.04800
N 	N 	0.25380 0.43480 0.91750 -0.06400
N 	N 	0.24620 0.56520 0.91750 -0.06400
N 	N 	0.75380 0.93480 0.41750 -0.04800
N 	N 	0.74620 0.06520 0.41750 -0.08000
O 	O 	0.80530 0.62280 0.42500 -0.50700
O 	O 	0.69470 0.37720 0.42500 -0.51000
O 	O 	0.30530 0.12280 0.92500 -0.50300
O 	O 	0.19470 0.87720 0.92500 -0.47600
O 	O 	0.19470 0.37720 0.57500 -0.51000
O 	O 	0.30530 0.62280 0.57500 -0.50600
O 	O 	0.69470 0.87720 0.07500 -0.47600
O 	O 	0.80530 0.12280 0.07500 -0.50500
O 	O 	0.81800 0.61910 0.32680 -0.52300
O 	O 	0.68200 0.38090 0.32680 -0.52500
O 	O 	0.31800 0.11910 0.82680 -0.52000
O 	O 	0.18200 0.88090 0.82680 -0.49300
O 	O 	0.18200 0.38090 0.67320 -0.52700
O 	O 	0.31800 0.61910 0.67320 -0.52000
O 	O 	0.68200 0.88090 0.17320 -0.49100
O 	O 	0.81800 0.11910 0.17320 -0.52200
