data_crystal

_cell_length_a 14.84800
_cell_length_b 17.66400
_cell_length_c 18.12900
_cell_angle_alpha 112.14000
_cell_angle_beta  90.00000
_cell_angle_gamma 90.00000

_symmetry_space_group_name_	'P 1'
_symmetry_space_group_name_H-M	'P 1'

loop_
_symmetry_equiv_pos_as_xyz
  x,y,z

loop_
_atom_site_label
_atom_site_type_symbol
_atom_site_fract_x
_atom_site_fract_y
_atom_site_fract_z
_atom_site_charge
Zn	Zn	0.09820 0.00263 0.16638 1.21600
Zn	Zn	0.90450 0.99786 0.16684 1.24500
Zn	Zn	0.50381 0.49962 0.16562 1.24600
Zn	Zn	0.40153 0.50354 0.00495 1.22700
Zn	Zn	0.59820 0.49737 0.33362 1.23600
Zn	Zn	0.40450 0.50214 0.33316 1.23600
Zn	Zn	0.00381 0.00038 0.33438 1.22500
Zn	Zn	0.90153 0.99646 0.49505 1.24900
Zn	Zn	0.90180 0.99737 0.83362 1.24500
Zn	Zn	0.09550 0.00214 0.83316 1.21800
Zn	Zn	0.49619 0.50038 0.83438 1.24600
Zn	Zn	0.59847 0.49646 0.99505 1.24200
Zn	Zn	0.40180 0.50263 0.66638 1.23600
Zn	Zn	0.59550 0.49786 0.66684 1.23700
Zn	Zn	0.99619 0.99962 0.66562 1.25700
Zn	Zn	0.09847 0.00354 0.50495 1.21800
Zn	Zn	-0.00000 0.00000 -0.00000 1.22100
Zn	Zn	0.50000 0.50000 0.50000 1.25500
H 	H 	0.99930 0.09010 0.13590 0.66000
H 	H 	0.00600 0.90670 0.19550 0.45400
H 	H 	0.49960 0.40800 0.02800 0.55400
H 	H 	0.88800 0.21780 0.12450 0.02900
H 	H 	0.69720 0.17220 0.95350 0.08100
H 	H 	0.79950 0.32310 0.21090 0.05100
H 	H 	0.60840 0.27760 0.03980 0.01100
H 	H 	0.81910 0.83170 0.86330 0.03400
H 	H 	0.74790 0.78230 0.05600 0.02500
H 	H 	0.75180 0.71050 0.78040 0.05000
H 	H 	0.68090 0.66020 0.97330 0.04100
H 	H 	0.24880 0.72190 0.11850 0.04100
H 	H 	0.40500 0.72440 0.30230 0.02800
H 	H 	0.17320 0.83780 0.20280 0.02300
H 	H 	0.32280 0.83530 0.38860 0.05100
H 	H 	0.49930 0.40990 0.36410 0.65300
H 	H 	0.50600 0.59330 0.30450 0.46800
H 	H 	0.99960 0.09200 0.47200 0.66300
H 	H 	0.38800 0.28220 0.37550 0.02500
H 	H 	0.19720 0.32780 0.54650 0.04900
H 	H 	0.29950 0.17690 0.28910 0.04500
H 	H 	0.10840 0.22240 0.46020 0.01600
H 	H 	0.31910 0.66830 0.63670 0.02600
H 	H 	0.24790 0.71770 0.44400 0.04700
H 	H 	0.25180 0.78950 0.71960 0.05200
H 	H 	0.18090 0.83980 0.52670 0.03000
H 	H 	0.74880 0.77810 0.38150 0.05300
H 	H 	0.90500 0.77560 0.19770 0.03300
H 	H 	0.67320 0.66220 0.29720 0.02000
H 	H 	0.82280 0.66470 0.11140 0.04200
H 	H 	0.00070 0.90990 0.86410 0.63900
H 	H 	0.99400 0.09330 0.80450 0.48000
H 	H 	0.50040 0.59200 0.97200 0.56000
H 	H 	0.11200 0.78220 0.87550 0.02600
H 	H 	0.30280 0.82780 0.04650 0.02400
H 	H 	0.20050 0.67690 0.78910 0.05100
H 	H 	0.39160 0.72240 0.96020 0.04100
H 	H 	0.18090 0.16830 0.13670 0.01600
H 	H 	0.25210 0.21770 0.94400 0.07500
H 	H 	0.24820 0.28950 0.21960 0.04700
H 	H 	0.31910 0.33980 0.02670 0.01400
H 	H 	0.75120 0.27810 0.88150 0.05700
H 	H 	0.59500 0.27560 0.69770 0.02900
H 	H 	0.82680 0.16220 0.79720 0.02300
H 	H 	0.67720 0.16470 0.61140 0.04200
H 	H 	0.50070 0.59010 0.63590 0.65500
H 	H 	0.49400 0.40670 0.69550 0.46700
H 	H 	0.00040 0.90800 0.52800 0.51300
H 	H 	0.61200 0.71780 0.62450 0.02600
H 	H 	0.80280 0.67220 0.45350 0.05100
H 	H 	0.70050 0.82310 0.71090 0.05600
H 	H 	0.89160 0.77760 0.53980 0.03300
H 	H 	0.68090 0.33170 0.36330 0.02700
H 	H 	0.75210 0.28230 0.55600 0.05200
H 	H 	0.74820 0.21050 0.28040 0.04700
H 	H 	0.81910 0.16020 0.47330 0.02800
H 	H 	0.25120 0.22190 0.61850 0.04400
H 	H 	0.09500 0.22440 0.80230 0.01800
H 	H 	0.32680 0.33780 0.70280 0.02300
H 	H 	0.17720 0.33530 0.88860 0.04900
C 	C 	0.85689 0.11626 0.97602 0.37800
C 	C 	0.80043 0.18442 0.03091 -0.09200
C 	C 	0.83112 0.22972 0.10744 -0.01700
C 	C 	0.71775 0.20276 0.00601 -0.07300
C 	C 	0.77857 0.29215 0.15867 -0.01200
C 	C 	0.66492 0.26526 0.05712 0.01200
C 	C 	0.69508 0.30966 0.13387 -0.10000
C 	C 	0.63821 0.37688 0.18949 0.36500
C 	C 	0.83645 0.89533 0.02061 0.33300
C 	C 	0.79024 0.81856 0.96762 -0.07000
C 	C 	0.79106 0.79695 0.88564 -0.01300
C 	C 	0.74881 0.76740 0.99994 0.02400
C 	C 	0.75122 0.72498 0.83651 -0.01400
C 	C 	0.70893 0.69500 0.95095 -0.02500
C 	C 	0.71004 0.67345 0.86888 -0.08400
C 	C 	0.66401 0.59697 0.81562 0.38100
C 	C 	0.37863 0.63370 0.14897 0.36300
C 	C 	0.33282 0.71080 0.20239 -0.08900
C 	C 	0.26434 0.74524 0.17332 -0.01800
C 	C 	0.35618 0.74598 0.28253 -0.00900
C 	C 	0.21848 0.81341 0.22357 -0.00800
C 	C 	0.30810 0.81262 0.33358 -0.01700
C 	C 	0.23864 0.84628 0.30450 -0.08500
C 	C 	0.18081 0.91453 0.35876 0.37600
C 	C 	0.35689 0.38374 0.52398 0.36300
C 	C 	0.30043 0.31558 0.46909 -0.08700
C 	C 	0.33112 0.27028 0.39256 -0.01600
C 	C 	0.21775 0.29724 0.49399 -0.02400
C 	C 	0.27857 0.20785 0.34133 -0.01700
C 	C 	0.16492 0.23474 0.44288 -0.00900
C 	C 	0.19508 0.19034 0.36613 -0.09700
C 	C 	0.13821 0.12312 0.31051 0.36300
C 	C 	0.33645 0.60467 0.47939 0.38100
C 	C 	0.29024 0.68144 0.53238 -0.09400
C 	C 	0.29106 0.70305 0.61436 -0.00600
C 	C 	0.24881 0.73260 0.50006 -0.01400
C 	C 	0.25122 0.77502 0.66349 -0.02000
C 	C 	0.20893 0.80500 0.54905 -0.01300
C 	C 	0.21004 0.82655 0.63112 -0.08700
C 	C 	0.16401 0.90303 0.68438 0.37800
C 	C 	0.87863 0.86630 0.35103 0.35800
C 	C 	0.83282 0.78920 0.29761 -0.07500
C 	C 	0.76434 0.75476 0.32668 -0.02700
C 	C 	0.85618 0.75402 0.21747 -0.01900
C 	C 	0.71848 0.68659 0.27643 0.00400
C 	C 	0.80810 0.68738 0.16642 -0.00600
C 	C 	0.73864 0.65372 0.19550 -0.09700
C 	C 	0.68081 0.58547 0.14124 0.38600
C 	C 	0.14311 0.88374 0.02398 0.34800
C 	C 	0.19957 0.81558 0.96909 -0.08100
C 	C 	0.16888 0.77028 0.89256 -0.00600
C 	C 	0.28225 0.79724 0.99399 0.03000
C 	C 	0.22143 0.70785 0.84133 -0.02600
C 	C 	0.33508 0.73474 0.94288 -0.03400
C 	C 	0.30492 0.69034 0.86613 -0.07400
C 	C 	0.36179 0.62312 0.81051 0.35900
C 	C 	0.16355 0.10467 0.97939 0.43300
C 	C 	0.20976 0.18144 0.03238 -0.11900
C 	C 	0.20894 0.20305 0.11436 -0.00400
C 	C 	0.25119 0.23260 0.00006 -0.06000
C 	C 	0.24878 0.27502 0.16349 -0.02100
C 	C 	0.29107 0.30500 0.04905 0.00600
C 	C 	0.28996 0.32655 0.13112 -0.10300
C 	C 	0.33599 0.40303 0.18438 0.38300
C 	C 	0.62137 0.36630 0.85103 0.36000
C 	C 	0.66718 0.28920 0.79761 -0.07700
C 	C 	0.73566 0.25476 0.82668 -0.02700
C 	C 	0.64382 0.25402 0.71747 -0.01900
C 	C 	0.78152 0.18659 0.77643 0.00400
C 	C 	0.69190 0.18738 0.66642 -0.00900
C 	C 	0.76136 0.15372 0.69550 -0.09700
C 	C 	0.81919 0.08547 0.64124 0.38600
C 	C 	0.64311 0.61626 0.47602 0.36500
C 	C 	0.69957 0.68442 0.53091 -0.08900
C 	C 	0.66888 0.72972 0.60744 -0.00600
C 	C 	0.78225 0.70276 0.50601 -0.01400
C 	C 	0.72143 0.79215 0.65867 -0.02200
C 	C 	0.83508 0.76526 0.55712 -0.01600
C 	C 	0.80492 0.80966 0.63387 -0.07900
C 	C 	0.86179 0.87688 0.68949 0.36100
C 	C 	0.66355 0.39533 0.52061 0.38100
C 	C 	0.70976 0.31856 0.46762 -0.09000
C 	C 	0.70894 0.29695 0.38564 -0.01000
C 	C 	0.75119 0.26740 0.49994 -0.01800
C 	C 	0.74878 0.22498 0.33651 -0.01500
C 	C 	0.79107 0.19500 0.45095 -0.00700
C 	C 	0.78996 0.17345 0.36888 -0.09400
C 	C 	0.83599 0.09697 0.31562 0.38300
C 	C 	0.12137 0.13370 0.64897 0.36600
C 	C 	0.16718 0.21080 0.70239 -0.09500
C 	C 	0.23566 0.24524 0.67332 -0.01800
C 	C 	0.14382 0.24598 0.78253 -0.00900
C 	C 	0.28152 0.31341 0.72357 -0.00900
C 	C 	0.19190 0.31262 0.83358 -0.02100
C 	C 	0.26136 0.34628 0.80450 -0.08800
C 	C 	0.31919 0.41453 0.85876 0.37800
O 	O 	0.99809 0.04798 0.12152 -1.27600
O 	O 	0.00315 0.95252 0.21204 -1.04200
O 	O 	0.50093 0.45175 0.04339 -1.17700
O 	O 	0.93346 0.10457 0.99873 -0.45200
O 	O 	0.82314 0.07518 0.90863 -0.48100
O 	O 	0.56211 0.39040 0.16706 -0.47400
O 	O 	0.67160 0.41525 0.25793 -0.47800
O 	O 	0.87357 0.93952 0.99019 -0.42100
O 	O 	0.83504 0.90909 0.09483 -0.47200
O 	O 	0.62783 0.55129 0.84500 -0.47300
O 	O 	0.66465 0.58467 0.74179 -0.49000
O 	O 	0.45127 0.61306 0.17115 -0.47000
O 	O 	0.33888 0.59391 0.08388 -0.48800
O 	O 	0.13499 0.95416 0.32867 -0.45000
O 	O 	0.18138 0.92562 0.43260 -0.46400
O 	O 	0.49809 0.45202 0.37848 -1.28300
O 	O 	0.50315 0.54748 0.28796 -1.06500
O 	O 	0.00093 0.04825 0.45661 -1.30700
O 	O 	0.43346 0.39543 0.50127 -0.47400
O 	O 	0.32314 0.42482 0.59137 -0.47700
O 	O 	0.06211 0.10960 0.33294 -0.49500
O 	O 	0.17160 0.08475 0.24207 -0.49600
O 	O 	0.37357 0.56048 0.50981 -0.46900
O 	O 	0.33504 0.59091 0.40517 -0.49000
O 	O 	0.12783 0.94871 0.65500 -0.46400
O 	O 	0.16465 0.91533 0.75821 -0.47600
O 	O 	0.95127 0.88694 0.32885 -0.44600
O 	O 	0.83888 0.90609 0.41612 -0.46600
O 	O 	0.63499 0.54584 0.17133 -0.47700
O 	O 	0.68138 0.57438 0.06740 -0.49300
O 	O 	0.00191 0.95202 0.87848 -1.25300
O 	O 	0.99685 0.04748 0.78796 -1.06300
O 	O 	0.49907 0.54825 0.95661 -1.16100
O 	O 	0.06654 0.89543 0.00127 -0.47200
O 	O 	0.17686 0.92482 0.09137 -0.45700
O 	O 	0.43789 0.60960 0.83294 -0.46800
O 	O 	0.32840 0.58475 0.74207 -0.47800
O 	O 	0.12643 0.06048 0.00981 -0.52400
O 	O 	0.16496 0.09091 0.90517 -0.51200
O 	O 	0.37217 0.44871 0.15500 -0.47900
O 	O 	0.33535 0.41533 0.25821 -0.49500
O 	O 	0.54873 0.38694 0.82885 -0.46600
O 	O 	0.66112 0.40609 0.91612 -0.46900
O 	O 	0.86501 0.04584 0.67133 -0.48100
O 	O 	0.81862 0.07438 0.56740 -0.48600
O 	O 	0.50191 0.54798 0.62152 -1.28400
O 	O 	0.49685 0.45252 0.71204 -1.06500
O 	O 	0.99907 0.95175 0.54339 -1.10100
O 	O 	0.56654 0.60457 0.49873 -0.47300
O 	O 	0.67686 0.57518 0.40863 -0.47400
O 	O 	0.93789 0.89040 0.66706 -0.46000
O 	O 	0.82840 0.91525 0.75793 -0.46800
O 	O 	0.62643 0.43952 0.49019 -0.46800
O 	O 	0.66496 0.40909 0.59483 -0.48700
O 	O 	0.87217 0.05129 0.34500 -0.47100
O 	O 	0.83535 0.08467 0.24179 -0.49900
O 	O 	0.04873 0.11306 0.67115 -0.50100
O 	O 	0.16112 0.09391 0.58388 -0.49700
O 	O 	0.36501 0.45416 0.82867 -0.47200
O 	O 	0.31862 0.42562 0.93260 -0.47000
