data_crystal

_cell_length_a 15.26050
_cell_length_b 17.73740
_cell_length_c 18.26350
_cell_angle_alpha 113.07100
_cell_angle_beta  90.00000
_cell_angle_gamma 90.00000

_symmetry_space_group_name_	'P 1'
_symmetry_space_group_name_H-M	'P 1'

loop_
_symmetry_equiv_pos_as_xyz
  x,y,z

loop_
_atom_site_label
_atom_site_type_symbol
_atom_site_fract_x
_atom_site_fract_y
_atom_site_fract_z
_atom_site_charge
Zn	Zn	0.49540 0.50025 0.83424 1.23000
Zn	Zn	0.09639 0.00199 0.16618 1.19400
Zn	Zn	0.59603 0.49773 0.99521 1.22100
Zn	Zn	0.90684 0.99805 0.16714 1.22300
Zn	Zn	0.99540 0.99975 0.66576 1.24400
Zn	Zn	0.59639 0.49801 0.33382 1.21700
Zn	Zn	0.09603 0.00227 0.50479 1.19600
Zn	Zn	0.40684 0.50195 0.33286 1.21400
Zn	Zn	0.50460 0.49975 0.16576 1.23000
Zn	Zn	0.90361 0.99801 0.83382 1.22700
Zn	Zn	0.40397 0.50227 0.00479 1.20800
Zn	Zn	0.09316 0.00195 0.83286 1.19300
Zn	Zn	0.00460 0.00025 0.33424 1.20600
Zn	Zn	0.40361 0.50199 0.66618 1.21700
Zn	Zn	0.90397 0.99773 0.49521 1.22900
Zn	Zn	0.59316 0.49805 0.66714 1.21500
Zn	Zn	-0.00000 0.00000 -0.00000 1.19500
Zn	Zn	0.50000 0.50000 0.50000 1.23200
H 	H 	0.49510 0.39280 0.68810 0.18900
H 	H 	0.49990 0.60760 0.97990 0.19400
H 	H 	0.99720 0.10700 0.14540 0.20300
H 	H 	0.82440 0.16770 0.79800 0.03200
H 	H 	0.74820 0.28090 0.88030 0.05900
H 	H 	0.60620 0.27810 0.69430 0.03800
H 	H 	0.68790 0.16790 0.61060 0.04300
H 	H 	0.11950 0.78250 0.87060 0.03800
H 	H 	0.20630 0.67660 0.78710 0.05100
H 	H 	0.38170 0.72010 0.96310 0.05000
H 	H 	0.29480 0.82670 0.04670 0.02700
H 	H 	0.67720 0.66650 0.97360 0.04900
H 	H 	0.74680 0.78590 0.05470 0.02600
H 	H 	0.82330 0.82620 0.86310 0.04100
H 	H 	0.75250 0.70830 0.78190 0.05500
H 	H 	0.99510 0.10720 0.81190 0.20500
H 	H 	0.99990 0.89240 0.52010 0.19200
H 	H 	0.49720 0.39300 0.35460 0.19000
H 	H 	0.32440 0.33230 0.70200 0.03200
H 	H 	0.24820 0.21910 0.61970 0.04600
H 	H 	0.10620 0.22190 0.80570 0.02500
H 	H 	0.18790 0.33210 0.88940 0.05000
H 	H 	0.61950 0.71750 0.62940 0.03800
H 	H 	0.70630 0.82340 0.71290 0.05800
H 	H 	0.88170 0.77990 0.53690 0.04200
H 	H 	0.79480 0.67330 0.45330 0.05400
H 	H 	0.17720 0.83350 0.52640 0.03600
H 	H 	0.24680 0.71410 0.44530 0.04700
H 	H 	0.32330 0.67380 0.63690 0.03300
H 	H 	0.25250 0.79170 0.71810 0.05600
H 	H 	0.50490 0.60720 0.31190 0.19100
H 	H 	0.50010 0.39240 0.02010 0.18500
H 	H 	0.00280 0.89300 0.85460 0.18300
H 	H 	0.17560 0.83230 0.20200 0.03100
H 	H 	0.25180 0.71910 0.11970 0.04300
H 	H 	0.39380 0.72190 0.30570 0.03600
H 	H 	0.31210 0.83210 0.38940 0.05300
H 	H 	0.88050 0.21750 0.12940 0.04200
H 	H 	0.79370 0.32340 0.21290 0.05500
H 	H 	0.61830 0.27990 0.03690 0.02400
H 	H 	0.70520 0.17330 0.95330 0.07600
H 	H 	0.32280 0.33350 0.02640 0.02300
H 	H 	0.25320 0.21410 0.94530 0.07300
H 	H 	0.17670 0.17380 0.13690 0.02200
H 	H 	0.24750 0.29170 0.21810 0.05000
H 	H 	0.00490 0.89280 0.18810 0.17900
H 	H 	0.00010 0.10760 0.47990 0.18200
H 	H 	0.50280 0.60700 0.64540 0.19200
H 	H 	0.67560 0.66770 0.29800 0.02900
H 	H 	0.75180 0.78090 0.38030 0.05600
H 	H 	0.89380 0.77810 0.19430 0.04400
H 	H 	0.81210 0.66790 0.11060 0.04400
H 	H 	0.38050 0.28250 0.37060 0.03700
H 	H 	0.29370 0.17660 0.28710 0.04800
H 	H 	0.11830 0.22010 0.46310 0.03000
H 	H 	0.20520 0.32670 0.54670 0.05000
H 	H 	0.82280 0.16650 0.47360 0.04200
H 	H 	0.75320 0.28590 0.55470 0.05200
H 	H 	0.67670 0.32620 0.36310 0.03400
H 	H 	0.74750 0.20830 0.28190 0.05100
C 	C 	0.82490 0.09050 0.64220 0.39400
C 	C 	0.76630 0.15760 0.69520 -0.09700
C 	C 	0.78210 0.19100 0.77670 0.00300
C 	C 	0.73590 0.25830 0.82610 -0.02900
C 	C 	0.67080 0.29290 0.79560 -0.07500
C 	C 	0.62390 0.36880 0.84890 0.36600
C 	C 	0.65150 0.25730 0.71490 -0.02300
C 	C 	0.70000 0.19060 0.66490 -0.00600
C 	C 	0.14170 0.88340 0.02120 0.32200
C 	C 	0.19850 0.81570 0.96730 -0.06700
C 	C 	0.17220 0.77030 0.88910 -0.01900
C 	C 	0.22420 0.70710 0.83910 -0.02200
C 	C 	0.30340 0.68930 0.86660 -0.07400
C 	C 	0.36000 0.62140 0.81190 0.36600
C 	C 	0.32950 0.73310 0.94440 -0.03500
C 	C 	0.27710 0.79670 0.99460 0.02400
C 	C 	0.65920 0.59960 0.81650 0.38500
C 	C 	0.70710 0.67580 0.86950 -0.07600
C 	C 	0.70590 0.69870 0.95140 -0.03100
C 	C 	0.74810 0.77010 0.99980 0.02700
C 	C 	0.79220 0.81850 0.96780 -0.07300
C 	C 	0.84110 0.89370 0.01980 0.34600
C 	C 	0.79370 0.79450 0.88540 -0.01000
C 	C 	0.75140 0.72390 0.83680 -0.01900
C 	C 	0.32490 0.40950 0.85780 0.38500
C 	C 	0.26630 0.34240 0.80480 -0.08800
C 	C 	0.28210 0.30900 0.72330 -0.01200
C 	C 	0.23590 0.24170 0.67390 -0.01800
C 	C 	0.17080 0.20710 0.70440 -0.09600
C 	C 	0.12390 0.13120 0.65110 0.37400
C 	C 	0.15150 0.24270 0.78510 -0.01000
C 	C 	0.20000 0.30940 0.83510 -0.02200
C 	C 	0.64170 0.61660 0.47880 0.37300
C 	C 	0.69850 0.68430 0.53270 -0.08600
C 	C 	0.67220 0.72970 0.61090 -0.01000
C 	C 	0.72420 0.79290 0.66090 -0.02300
C 	C 	0.80340 0.81070 0.63340 -0.07600
C 	C 	0.86000 0.87860 0.68810 0.36700
C 	C 	0.82950 0.76690 0.55560 -0.01800
C 	C 	0.77710 0.70330 0.50540 -0.01400
C 	C 	0.15920 0.90040 0.68350 0.38200
C 	C 	0.20710 0.82420 0.63050 -0.08100
C 	C 	0.20590 0.80130 0.54860 -0.01900
C 	C 	0.24810 0.72990 0.50020 -0.01100
C 	C 	0.29220 0.68150 0.53220 -0.09600
C 	C 	0.34110 0.60630 0.48020 0.39200
C 	C 	0.29370 0.70550 0.61460 -0.00400
C 	C 	0.25140 0.77610 0.66320 -0.02500
C 	C 	0.17510 0.90950 0.35780 0.38200
C 	C 	0.23370 0.84240 0.30480 -0.08600
C 	C 	0.21790 0.80900 0.22330 -0.01100
C 	C 	0.26410 0.74170 0.17390 -0.01900
C 	C 	0.32920 0.70710 0.20440 -0.08800
C 	C 	0.37610 0.63120 0.15110 0.37000
C 	C 	0.34850 0.74270 0.28510 -0.01300
C 	C 	0.30000 0.80940 0.33510 -0.01700
C 	C 	0.85830 0.11660 0.97880 0.40400
C 	C 	0.80150 0.18430 0.03270 -0.09300
C 	C 	0.82780 0.22970 0.11090 -0.01500
C 	C 	0.77580 0.29290 0.16090 -0.01600
C 	C 	0.69660 0.31070 0.13340 -0.09200
C 	C 	0.64000 0.37860 0.18810 0.37100
C 	C 	0.67050 0.26690 0.05560 0.00300
C 	C 	0.72290 0.20330 0.00540 -0.06000
C 	C 	0.34080 0.40040 0.18350 0.38700
C 	C 	0.29290 0.32420 0.13050 -0.09500
C 	C 	0.29410 0.30130 0.04860 0.00000
C 	C 	0.25190 0.22990 0.00020 -0.05400
C 	C 	0.20780 0.18150 0.03220 -0.11800
C 	C 	0.15890 0.10630 0.98020 0.43800
C 	C 	0.20630 0.20550 0.11460 -0.00200
C 	C 	0.24860 0.27610 0.16320 -0.02600
C 	C 	0.67510 0.59050 0.14220 0.39300
C 	C 	0.73370 0.65760 0.19520 -0.09900
C 	C 	0.71790 0.69100 0.27670 0.00400
C 	C 	0.76410 0.75830 0.32610 -0.03000
C 	C 	0.82920 0.79290 0.29560 -0.07100
C 	C 	0.87610 0.86880 0.34890 0.36300
C 	C 	0.84850 0.75730 0.21490 -0.02500
C 	C 	0.80000 0.69060 0.16490 -0.00300
C 	C 	0.35830 0.38340 0.52120 0.37000
C 	C 	0.30150 0.31570 0.46730 -0.08600
C 	C 	0.32780 0.27030 0.38910 -0.01900
C 	C 	0.27580 0.20710 0.33910 -0.01900
C 	C 	0.19660 0.18930 0.36660 -0.09200
C 	C 	0.14000 0.12140 0.31190 0.36900
C 	C 	0.17050 0.23310 0.44440 -0.01500
C 	C 	0.22290 0.29670 0.49460 -0.02400
C 	C 	0.84080 0.09960 0.31650 0.38600
C 	C 	0.79290 0.17580 0.36950 -0.08200
C 	C 	0.79410 0.19870 0.45140 -0.01500
C 	C 	0.75190 0.27010 0.49980 -0.01100
C 	C 	0.70780 0.31850 0.46780 -0.09200
C 	C 	0.65890 0.39370 0.51980 0.39200
C 	C 	0.70630 0.29450 0.38540 -0.00600
C 	C 	0.74860 0.22390 0.33680 -0.02100
O 	O 	0.49647 0.45287 0.71131 -0.78500
O 	O 	0.49819 0.54760 0.95668 -0.77900
O 	O 	0.99870 0.04698 0.12214 -0.77200
O 	O 	0.33035 0.58335 0.74219 -0.48200
O 	O 	0.17226 0.92327 0.08997 -0.45800
O 	O 	0.82353 0.07582 0.56806 -0.48900
O 	O 	0.55384 0.38823 0.82539 -0.46900
O 	O 	0.43229 0.60832 0.83653 -0.46900
O 	O 	0.87970 0.93470 0.98914 -0.43500
O 	O 	0.65874 0.40842 0.91614 -0.47500
O 	O 	0.06928 0.89581 0.99637 -0.44000
O 	O 	0.87065 0.05308 0.67295 -0.48300
O 	O 	0.62070 0.55743 0.84639 -0.48100
O 	O 	0.83850 0.90940 0.09430 -0.47900
O 	O 	0.66155 0.58510 0.74235 -0.49100
O 	O 	0.99647 0.04713 0.78869 -0.77500
O 	O 	0.99819 0.95240 0.54332 -0.75700
O 	O 	0.49870 0.45302 0.37786 -0.78900
O 	O 	0.83035 0.91665 0.75781 -0.47100
O 	O 	0.67226 0.57673 0.41003 -0.48100
O 	O 	0.32353 0.42418 0.93194 -0.47800
O 	O 	0.05384 0.11177 0.67461 -0.50700
O 	O 	0.93229 0.89168 0.66347 -0.46100
O 	O 	0.37970 0.56530 0.51086 -0.48200
O 	O 	0.15874 0.09158 0.58386 -0.50200
O 	O 	0.56928 0.60419 0.50363 -0.47800
O 	O 	0.37065 0.44692 0.82705 -0.47900
O 	O 	0.12070 0.94257 0.65361 -0.47500
O 	O 	0.33850 0.59060 0.40570 -0.49700
O 	O 	0.16155 0.91490 0.75765 -0.47800
O 	O 	0.50353 0.54713 0.28869 -0.78500
O 	O 	0.50181 0.45240 0.04332 -0.79200
O 	O 	0.00130 0.95302 0.87786 -0.77100
O 	O 	0.66965 0.41665 0.25781 -0.48100
O 	O 	0.82774 0.07673 0.91003 -0.49300
O 	O 	0.17647 0.92418 0.43194 -0.47200
O 	O 	0.44616 0.61177 0.17461 -0.47300
O 	O 	0.56771 0.39168 0.16347 -0.47400
O 	O 	0.12030 0.06530 0.01086 -0.53500
O 	O 	0.34126 0.59158 0.08386 -0.49500
O 	O 	0.93072 0.10419 0.00363 -0.48600
O 	O 	0.12935 0.94692 0.32705 -0.45900
O 	O 	0.37930 0.44257 0.15361 -0.48700
O 	O 	0.16150 0.09060 0.90570 -0.52000
O 	O 	0.33845 0.41490 0.25765 -0.49800
O 	O 	0.00353 0.95287 0.21131 -0.77300
O 	O 	0.00181 0.04760 0.45668 -0.82500
O 	O 	0.50130 0.54698 0.62214 -0.78900
O 	O 	0.16965 0.08335 0.24219 -0.50000
O 	O 	0.32774 0.42327 0.58997 -0.48500
O 	O 	0.67647 0.57582 0.06806 -0.49700
O 	O 	0.94616 0.88823 0.32539 -0.44700
O 	O 	0.06771 0.10832 0.33653 -0.49500
O 	O 	0.62030 0.43470 0.48914 -0.48100
O 	O 	0.84126 0.90842 0.41614 -0.47300
O 	O 	0.43072 0.39581 0.49637 -0.47900
O 	O 	0.62935 0.55308 0.17295 -0.48200
O 	O 	0.87930 0.05743 0.34639 -0.47100
O 	O 	0.66150 0.40940 0.59430 -0.49300
O 	O 	0.83845 0.08510 0.24235 -0.49700
