data_crystal

_cell_length_a 9.12690
_cell_length_b 9.34270
_cell_length_c 9.60400
_cell_angle_alpha 114.45500
_cell_angle_beta  90.00000
_cell_angle_gamma 90.00000

_symmetry_space_group_name_	'P 1'
_symmetry_space_group_name_H-M	'P 1'

loop_
_symmetry_equiv_pos_as_xyz
  x,y,z

loop_
_atom_site_label
_atom_site_type_symbol
_atom_site_fract_x
_atom_site_fract_y
_atom_site_fract_z
_atom_site_charge
Zn	Zn	0.56466 0.40359 0.28456 1.18900
Zn	Zn	0.06466 0.59641 0.71544 1.18400
H 	H 	0.27690 0.56640 0.45440 -0.03300
H 	H 	0.43120 0.35730 0.84280 0.10400
H 	H 	0.26240 0.38770 0.84530 0.10300
H 	H 	0.57440 0.62060 0.91240 0.15500
H 	H 	0.55940 0.33830 0.59210 0.04300
H 	H 	0.67880 0.07890 0.25220 -0.02000
H 	H 	0.76720 0.11180 0.12870 -0.01900
H 	H 	0.28970 0.65120 -0.00000 0.02300
H 	H 	0.66120 0.89240 0.93390 0.12600
H 	H 	0.74230 0.84150 0.05000 0.12400
H 	H 	0.55000 0.16100 0.04600 0.14700
H 	H 	0.47600 0.13300 0.15900 0.14500
H 	H 	0.77690 0.43360 0.54560 -0.03000
H 	H 	0.93120 0.64270 0.15720 0.10700
H 	H 	0.76240 0.61230 0.15470 0.09900
H 	H 	0.07440 0.37940 0.08760 0.14900
H 	H 	0.05940 0.66170 0.40790 0.00000
H 	H 	0.17880 0.92110 0.74780 -0.02400
H 	H 	0.26720 0.88820 0.87130 -0.01900
H 	H 	0.78970 0.34880 -0.00000 0.02800
H 	H 	0.16120 0.10760 0.06610 0.10700
H 	H 	0.24230 0.15850 0.95000 0.11400
H 	H 	0.05000 0.83900 0.95400 0.14800
H 	H 	0.97600 0.86700 0.84100 0.17300
C 	C 	0.32320 0.52150 0.51290 0.08100
C 	C 	0.35780 0.43210 0.84220 -0.26000
C 	C 	0.47830 0.39650 0.58770 -0.07200
C 	C 	0.37060 0.45120 0.69640 0.11800
C 	C 	0.67510 0.07190 0.14870 0.09500
C 	C 	0.38460 0.53840 0.12290 0.30600
C 	C 	0.37630 0.58490 0.98760 0.01600
C 	C 	0.65920 0.90000 0.03770 -0.35300
C 	C 	0.51980 0.82550 0.06070 0.29300
C 	C 	0.82320 0.47850 0.48710 0.08500
C 	C 	0.85780 0.56790 0.15780 -0.24200
C 	C 	0.97830 0.60350 0.41230 -0.00500
C 	C 	0.87060 0.54880 0.30360 0.10000
C 	C 	0.17510 0.92810 0.85130 0.08500
C 	C 	0.88460 0.46160 0.87710 0.34700
C 	C 	0.87630 0.41510 0.01240 0.01100
C 	C 	0.15920 0.10000 0.96230 -0.32300
C 	C 	0.01980 0.17450 0.93930 0.25200
N 	N 	0.55280 0.17350 0.13720 -0.44400
N 	N 	0.50590 0.67030 0.97530 -0.24100
N 	N 	0.44750 0.44100 0.47090 -0.27100
N 	N 	0.27050 0.53230 0.64670 -0.29300
N 	N 	0.05280 0.82650 0.86280 -0.46900
N 	N 	0.00590 0.32970 0.02470 -0.24800
N 	N 	0.94750 0.55900 0.52910 -0.27100
N 	N 	0.77050 0.46770 0.35330 -0.28700
O 	O 	0.51356 0.52440 0.16710 -0.46900
O 	O 	0.26910 0.50940 0.17440 -0.32000
O 	O 	0.42270 0.90290 0.15060 -0.27800
O 	O 	0.01356 0.47560 0.83290 -0.49900
O 	O 	0.76910 0.49060 0.82560 -0.32300
O 	O 	0.92270 0.09710 0.84940 -0.24400
