data_crystal

_cell_length_a 9.93040
_cell_length_b 11.44460
_cell_length_c 14.61920
_cell_angle_alpha 91.42300
_cell_angle_beta  90.00000
_cell_angle_gamma 90.00000

_symmetry_space_group_name_	'P 1'
_symmetry_space_group_name_H-M	'P 1'

loop_
_symmetry_equiv_pos_as_xyz
  x,y,z

loop_
_atom_site_label
_atom_site_type_symbol
_atom_site_fract_x
_atom_site_fract_y
_atom_site_fract_z
_atom_site_charge
Fe	Fe	0.91880 0.75553 0.63240 1.26600
Fe	Fe	0.60731 0.76005 0.68770 1.21900
Fe	Fe	0.41880 0.74447 0.86760 1.20700
Fe	Fe	0.10731 0.73995 0.81230 1.19700
Fe	Fe	0.08120 0.24447 0.36760 1.13100
Fe	Fe	0.39269 0.23995 0.31230 1.21100
Fe	Fe	0.58120 0.25553 0.13240 1.19000
Fe	Fe	0.89269 0.26005 0.18770 1.23400
Fe	Fe	-0.00000 0.50000 0.50000 1.16000
Fe	Fe	0.50000 0.00000 -0.00000 1.12600
Fe	Fe	0.00000 0.00000 0.50000 1.13100
Fe	Fe	0.50000 0.50000 -0.00000 1.17400
H 	H 	0.14900 0.71300 0.42600 -0.20600
H 	H 	0.69500 0.98600 0.50200 -0.03500
H 	H 	0.74200 0.85400 0.86800 -0.05000
H 	H 	0.61300 0.54600 0.53700 -0.05800
H 	H 	0.17600 0.97300 0.72600 -0.45000
H 	H 	0.04900 0.47900 0.76500 -0.10600
H 	H 	0.64900 0.78700 0.07400 -0.08800
H 	H 	0.19500 0.51400 0.99800 -0.04900
H 	H 	0.24200 0.64600 0.63200 -0.08000
H 	H 	0.11300 0.95400 0.96300 -0.08000
H 	H 	0.67600 0.52700 0.77400 -0.31800
H 	H 	0.54900 0.02100 0.73500 -0.18900
H 	H 	0.85100 0.28700 0.57400 -0.15200
H 	H 	0.30500 0.01400 0.49800 -0.09300
H 	H 	0.25800 0.14600 0.13200 -0.11300
H 	H 	0.38700 0.45400 0.46300 -0.05900
H 	H 	0.82400 0.02700 0.27400 -0.25900
H 	H 	0.95100 0.52100 0.23500 -0.06800
H 	H 	0.35100 0.21300 0.92600 -0.28200
H 	H 	0.80500 0.48600 0.00200 -0.08200
H 	H 	0.75800 0.35400 0.36800 -0.08100
H 	H 	0.88700 0.04600 0.03700 -0.03300
H 	H 	0.32400 0.47300 0.22600 -0.39600
H 	H 	0.45100 0.97900 0.26500 0.03500
C 	C 	0.10370 0.74400 0.46820 0.63600
C 	C 	0.71830 0.92840 0.54960 0.42300
C 	C 	0.82430 0.82910 0.83090 0.43300
C 	C 	0.71050 0.57400 0.54820 0.43100
C 	C 	0.12350 0.95510 0.68890 1.13800
C 	C 	0.01490 0.51960 0.71140 0.48600
C 	C 	0.60370 0.75600 0.03180 0.37500
C 	C 	0.21830 0.57160 0.95040 0.43800
C 	C 	0.32430 0.67090 0.66910 0.43600
C 	C 	0.21050 0.92600 0.95180 0.56300
C 	C 	0.62350 0.54490 0.81110 0.86100
C 	C 	0.51490 0.98040 0.78860 0.68600
C 	C 	0.89630 0.25600 0.53180 0.60300
C 	C 	0.28170 0.07160 0.45040 0.44400
C 	C 	0.17570 0.17090 0.16910 0.43600
C 	C 	0.28950 0.42600 0.45180 0.42700
C 	C 	0.87650 0.04490 0.31110 0.65300
C 	C 	0.98510 0.48040 0.28860 0.46200
C 	C 	0.39630 0.24400 0.96820 0.89600
C 	C 	0.78170 0.42840 0.04960 0.43300
C 	C 	0.67570 0.32910 0.33090 0.43400
C 	C 	0.78950 0.07400 0.04820 0.26000
C 	C 	0.37650 0.45510 0.18890 0.94200
C 	C 	0.48510 0.01960 0.21140 0.21800
O 	O 	0.02710 0.68720 0.52170 -0.64200
O 	O 	0.11230 0.85030 0.46300 -0.47900
O 	O 	0.84160 0.89760 0.55980 -0.46600
O 	O 	0.62120 0.88840 0.59100 -0.40100
O 	O 	0.79780 0.80690 0.74710 -0.50300
O 	O 	0.93480 0.81390 0.86870 -0.32100
O 	O 	0.74060 0.65240 0.60670 -0.51200
O 	O 	0.79120 0.51660 0.49980 -0.38000
O 	O 	0.08200 0.85110 0.69680 -0.74800
O 	O 	0.10040 0.02160 0.62690 -0.70000
O 	O 	0.00340 0.62810 0.71850 -0.60400
O 	O 	0.00360 0.45860 0.64050 -0.47300
O 	O 	0.52710 0.81280 0.97830 -0.42800
O 	O 	0.61230 0.64970 0.03700 -0.43300
O 	O 	0.34160 0.60240 0.94020 -0.50000
O 	O 	0.12120 0.61160 0.90900 -0.43900
O 	O 	0.29780 0.69310 0.75290 -0.53200
O 	O 	0.43480 0.68610 0.63130 -0.41900
O 	O 	0.24060 0.84760 0.89330 -0.55800
O 	O 	0.29120 0.98340 0.00020 -0.49300
O 	O 	0.58200 0.64890 0.80320 -0.63000
O 	O 	0.60040 0.47840 0.87310 -0.48900
O 	O 	0.50340 0.87190 0.78150 -0.59400
O 	O 	0.50360 0.04140 0.85950 -0.48200
O 	O 	0.97290 0.31280 0.47830 -0.50400
O 	O 	0.88770 0.14970 0.53700 -0.43300
O 	O 	0.15840 0.10240 0.44020 -0.57600
O 	O 	0.37880 0.11160 0.40900 -0.45200
O 	O 	0.20220 0.19310 0.25290 -0.57200
O 	O 	0.06520 0.18610 0.13130 -0.52800
O 	O 	0.25940 0.34760 0.39330 -0.55000
O 	O 	0.20880 0.48340 0.50020 -0.43000
O 	O 	0.91800 0.14890 0.30320 -0.55500
O 	O 	0.89960 0.97840 0.37310 -0.37300
O 	O 	0.99660 0.37190 0.28150 -0.49700
O 	O 	0.99640 0.54140 0.35950 -0.34800
O 	O 	0.47290 0.18720 0.02170 -0.73100
O 	O 	0.38770 0.35030 0.96300 -0.50100
O 	O 	0.65840 0.39760 0.05980 -0.55400
O 	O 	0.87880 0.38840 0.09100 -0.41400
O 	O 	0.70220 0.30690 0.24710 -0.54200
O 	O 	0.56520 0.31390 0.36870 -0.42600
O 	O 	0.75940 0.15240 0.10670 -0.49500
O 	O 	0.70880 0.01660 0.99980 -0.27900
O 	O 	0.41800 0.35110 0.19680 -0.68000
O 	O 	0.39960 0.52160 0.12690 -0.60000
O 	O 	0.49660 0.12810 0.21850 -0.49600
O 	O 	0.49640 0.95860 0.14050 -0.30600
