data_crystal

_cell_length_a 7.67500
_cell_length_b 10.36390
_cell_length_c 10.36390
_cell_angle_alpha 82.11970
_cell_angle_beta  68.26740
_cell_angle_gamma 68.26740

_symmetry_space_group_name_	'P 1'
_symmetry_space_group_name_H-M	'P 1'

loop_
_symmetry_equiv_pos_as_xyz
  x,y,z

loop_
_atom_site_label
_atom_site_type_symbol
_atom_site_fract_x
_atom_site_fract_y
_atom_site_fract_z
_atom_site_charge
Ca	Ca	0.12500 0.44070 0.05930 1.49800
Ca	Ca	0.62500 0.55930 0.94070 1.50100
Ca	Ca	0.81570 0.05930 0.55930 1.50200
Ca	Ca	0.43430 0.94070 0.44070 1.50200
C 	C 	0.22610 0.65680 0.82720 0.06400
C 	C 	0.05220 0.71940 0.23740 0.02900
C 	C 	0.71010 0.34320 0.17280 0.06200
C 	C 	0.00900 0.28060 0.76260 0.03800
C 	C 	0.94670 0.82720 0.34320 0.11600
C 	C 	0.71040 0.23740 0.28060 0.06800
C 	C 	0.11710 0.17280 0.65680 0.06800
C 	C 	0.22840 0.76260 0.71940 0.07100
C 	C 	0.53990 0.32720 0.15680 0.06100
C 	C 	0.24100 0.73740 0.21940 0.08300
C 	C 	0.02390 0.67280 0.84320 0.04300
C 	C 	0.19780 0.26260 0.78060 0.07300
C 	C 	0.13290 0.84320 0.32720 0.02300
C 	C 	0.02160 0.78060 0.73740 0.04100
C 	C 	0.30330 0.15680 0.67280 0.05600
C 	C 	0.53960 0.21940 0.26260 0.06700
O 	O 	0.34040 0.57820 0.88780 -0.47300
O 	O 	0.00100 0.64500 0.18420 -0.40700
O 	O 	0.80640 0.42180 0.11220 -0.46500
O 	O 	0.83020 0.35500 0.81580 -0.38500
O 	O 	0.77180 0.88780 0.42180 -0.48100
O 	O 	0.81480 0.18420 0.35500 -0.39800
O 	O 	0.08140 0.11220 0.57820 -0.48200
O 	O 	0.35400 0.81580 0.64500 -0.40600
O 	O 	0.44360 0.38780 0.07820 -0.47400
O 	O 	0.41980 0.68420 0.14500 -0.40800
O 	O 	0.90960 0.61220 0.92180 -0.45200
O 	O 	0.24900 0.31580 0.85500 -0.40900
O 	O 	0.16860 0.92180 0.38780 -0.46900
O 	O 	0.89600 0.85500 0.68420 -0.38000
O 	O 	0.47820 0.07820 0.61220 -0.47100
O 	O 	0.43520 0.14500 0.31580 -0.40600
