data_crystal

_cell_length_a 11.20380
_cell_length_b 13.97500
_cell_length_c 15.84800
_cell_angle_alpha 90.00000
_cell_angle_beta  90.00000
_cell_angle_gamma 90.00000

_symmetry_space_group_name_	'P 1'
_symmetry_space_group_name_H-M	'P 1'

loop_
_symmetry_equiv_pos_as_xyz
  x,y,z

loop_
_atom_site_label
_atom_site_type_symbol
_atom_site_fract_x
_atom_site_fract_y
_atom_site_fract_z
_atom_site_charge
Zn	Zn	0.50000 0.89623 -0.00000 1.19500
Zn	Zn	0.50000 0.10377 -0.00000 1.19000
H 	H 	0.86200 0.85660 0.67240 0.08900
H 	H 	0.75210 0.85640 0.79610 0.04300
H 	H 	0.13800 0.14340 0.67240 0.09200
H 	H 	0.24790 0.14360 0.79610 0.04700
H 	H 	0.13800 0.85660 0.32760 0.08900
H 	H 	0.24790 0.85640 0.20390 0.01200
H 	H 	0.86200 0.14340 0.32760 0.09100
H 	H 	0.75210 0.14360 0.20390 0.01700
H 	H 	0.13800 0.14340 0.32760 0.09100
H 	H 	0.24790 0.14360 0.20390 0.01700
H 	H 	0.86200 0.85660 0.32760 0.08900
H 	H 	0.75210 0.85640 0.20390 0.01200
H 	H 	0.86200 0.14340 0.67240 0.09200
H 	H 	0.75210 0.14360 0.79610 0.04700
H 	H 	0.13800 0.85660 0.67240 0.08900
H 	H 	0.24790 0.85640 0.79610 0.04300
H 	H 	0.66770 0.73930 -0.00000 -0.02900
H 	H 	0.67740 0.57450 -0.00000 0.06800
H 	H 	0.33230 0.26070 -0.00000 -0.03200
H 	H 	0.32260 0.42550 -0.00000 0.06800
H 	H 	0.33230 0.73930 -0.00000 -0.02900
H 	H 	0.32260 0.57450 -0.00000 0.06800
H 	H 	0.66770 0.26070 -0.00000 -0.03200
H 	H 	0.67740 0.42550 -0.00000 0.06800
C 	C 	0.83820 0.91570 0.69690 -0.08500
C 	C 	0.77270 0.91550 0.77020 0.10600
C 	C 	0.16180 0.08430 0.69690 -0.11800
C 	C 	0.22730 0.08450 0.77020 0.07300
C 	C 	0.16180 0.91570 0.30310 -0.11000
C 	C 	0.22730 0.91550 0.22980 0.12500
C 	C 	0.83820 0.08430 0.30310 -0.14300
C 	C 	0.77270 0.08450 0.22980 0.09300
C 	C 	0.16180 0.08430 0.30310 -0.14300
C 	C 	0.22730 0.08450 0.22980 0.09300
C 	C 	0.83820 0.91570 0.30310 -0.11000
C 	C 	0.77270 0.91550 0.22980 0.12500
C 	C 	0.83820 0.08430 0.69690 -0.11800
C 	C 	0.77270 0.08450 0.77020 0.07300
C 	C 	0.16180 0.91570 0.69690 -0.08500
C 	C 	0.22730 0.91550 0.77020 0.10600
C 	C 	0.87880 0.00000 0.50000 0.09300
C 	C 	0.12120 0.00000 0.50000 0.09300
C 	C 	0.50000 0.55080 -0.00000 0.05700
C 	C 	0.50000 0.44920 -0.00000 0.05800
C 	C 	0.93940 0.00000 0.57730 -0.04000
C 	C 	0.86990 0.00000 0.65840 0.07200
C 	C 	0.73680 -0.00000 0.80630 -0.14300
C 	C 	0.65590 -0.00000 0.88310 0.37300
C 	C 	0.06060 0.00000 0.57730 -0.04000
C 	C 	0.13010 0.00000 0.65840 0.07200
C 	C 	0.26320 -0.00000 0.80630 -0.14300
C 	C 	0.34410 -0.00000 0.88310 0.37300
C 	C 	0.06060 0.00000 0.42270 -0.04400
C 	C 	0.13010 0.00000 0.34160 0.08400
C 	C 	0.26320 -0.00000 0.19370 -0.18600
C 	C 	0.34410 0.00000 0.11690 0.39300
C 	C 	0.93940 0.00000 0.42270 -0.04400
C 	C 	0.86990 0.00000 0.34160 0.08400
C 	C 	0.73680 -0.00000 0.19370 -0.18600
C 	C 	0.65590 0.00000 0.11690 0.39300
C 	C 	0.59440 0.70520 -0.00000 0.10400
C 	C 	0.60160 0.60490 -0.00000 -0.15000
C 	C 	0.40560 0.29480 -0.00000 0.10400
C 	C 	0.39840 0.39510 -0.00000 -0.15100
C 	C 	0.40560 0.70520 -0.00000 0.10400
C 	C 	0.39840 0.60490 -0.00000 -0.15000
C 	C 	0.59440 0.29480 -0.00000 0.10400
C 	C 	0.60160 0.39510 -0.00000 -0.15100
Br	Br	0.70755 0.00000 0.50000 -0.23200
Br	Br	0.29245 0.00000 0.50000 -0.23200
N 	N 	0.50000 0.75420 -0.00000 -0.29200
N 	N 	0.50000 0.24580 -0.00000 -0.29200
O 	O 	0.62480 0.92103 0.91050 -0.37500
O 	O 	0.37520 0.07897 0.91050 -0.40500
O 	O 	0.37520 0.92103 0.08950 -0.46100
O 	O 	0.62480 0.07897 0.08950 -0.49000
O 	O 	0.37520 0.07897 0.08950 -0.49000
O 	O 	0.62480 0.92103 0.08950 -0.46100
O 	O 	0.62480 0.07897 0.91050 -0.40500
O 	O 	0.37520 0.92103 0.91050 -0.37500
