data_crystal

_cell_length_a 15.29040
_cell_length_b 15.29040
_cell_length_c 17.66740
_cell_angle_alpha 115.64000
_cell_angle_beta  115.64000
_cell_angle_gamma 90.00010

_symmetry_space_group_name_	'P 1'
_symmetry_space_group_name_H-M	'P 1'

loop_
_symmetry_equiv_pos_as_xyz
  x,y,z

loop_
_atom_site_label
_atom_site_type_symbol
_atom_site_fract_x
_atom_site_fract_y
_atom_site_fract_z
_atom_site_charge
Zn	Zn	0.94412 0.94413 0.88826 1.26400
Zn	Zn	0.55577 0.55579 0.11154 1.26700
Zn	Zn	0.05582 0.05580 0.11159 1.26400
Zn	Zn	0.44429 0.44429 0.88860 1.26700
H 	H 	0.83827 0.70884 0.81955 0.05500
H 	H 	0.74599 0.54867 0.68178 0.03400
H 	H 	0.93560 0.74897 0.74355 0.01400
H 	H 	0.84885 0.65834 0.56737 0.04600
H 	H 	0.98141 0.11042 0.81930 0.05100
H 	H 	0.93595 0.13302 0.68165 0.03100
H 	H 	0.80794 0.99457 0.74356 0.01400
H 	H 	0.71853 0.90905 0.56739 0.04600
H 	H 	0.69795 0.96730 0.87420 0.05400
H 	H 	0.51719 0.90243 0.77387 0.03400
H 	H 	0.17603 0.90667 0.87396 0.05800
H 	H 	0.25625 0.87100 0.77344 0.03500
H 	H 	0.51902 0.79028 0.17986 0.05500
H 	H 	0.56479 0.94999 0.31821 0.03400
H 	H 	0.66110 0.38982 0.17999 0.05500
H 	H 	0.75388 0.36868 0.31842 0.03300
H 	H 	0.32363 0.53278 0.12654 0.05500
H 	H 	0.24285 0.59716 0.22661 0.03300
H 	H 	0.49721 0.67358 0.25531 0.01300
H 	H 	0.58272 0.76319 0.43175 0.04700
H 	H 	0.80280 0.59348 0.12625 0.05500
H 	H 	0.98363 0.62922 0.22646 0.03400
H 	H 	0.75813 0.58179 0.25531 0.01300
H 	H 	0.84905 0.66860 0.43175 0.04600
H 	H 	0.09268 0.30191 0.12537 0.05400
H 	H 	0.12828 0.48263 0.22603 0.03400
H 	H 	0.08580 0.25946 0.25539 0.01300
H 	H 	0.17115 0.34998 0.43145 0.04600
H 	H 	0.03270 0.82366 0.12568 0.05700
H 	H 	0.09768 0.74344 0.22620 0.03300
H 	H 	0.16964 0.99596 0.25539 0.01900
H 	H 	0.26031 0.08149 0.43145 0.04400
H 	H 	0.29114 0.01887 0.18071 0.04900
H 	H 	0.45111 0.06404 0.31863 0.03000
H 	H 	0.88983 0.16213 0.18086 0.05500
H 	H 	0.86799 0.25507 0.31886 0.03300
H 	H 	0.46734 0.19736 0.87403 0.05600
H 	H 	0.40278 0.01654 0.77378 0.03300
H 	H 	0.32923 0.24108 0.74484 0.01300
H 	H 	0.23850 0.15057 0.56876 0.04600
H 	H 	0.40647 0.67646 0.87380 0.05500
H 	H 	0.37057 0.75681 0.77336 0.03400
H 	H 	0.41558 0.50376 0.74485 0.01300
H 	H 	0.33024 0.41821 0.56878 0.04700
H 	H 	0.61035 0.48103 0.82022 0.05500
H 	H 	0.63219 0.43505 0.68211 0.03400
H 	H 	0.20984 0.33954 0.82044 0.05500
H 	H 	0.04998 0.24731 0.68222 0.03400
H 	H 	0.78338 0.99261 0.04627 0.05700
H 	H 	0.65378 0.04944 0.08820 0.02800
H 	H 	0.26282 0.05351 0.04604 0.04900
H 	H 	0.43438 0.03867 0.08806 0.03300
H 	H 	0.94593 0.21607 0.95310 0.05100
H 	H 	0.96046 0.34524 0.91054 0.03300
H 	H 	0.00745 0.73730 0.95385 0.05500
H 	H 	0.95073 0.56595 0.91249 0.02700
H 	H 	0.23697 0.50758 0.95417 0.05200
H 	H 	0.06551 0.45112 0.91274 0.03800
H 	H 	0.71672 0.44612 0.95342 0.05200
H 	H 	0.84593 0.46031 0.91078 0.03400
H 	H 	0.49273 0.28336 0.04655 0.05200
H 	H 	0.54933 0.15357 0.08829 0.03500
H 	H 	0.55370 0.76313 0.04635 0.05200
H 	H 	0.53891 0.93469 0.08821 0.03800
C 	C 	0.76744 0.70045 0.90146 0.03300
C 	C 	0.78392 0.66700 0.82176 -0.05500
C 	C 	0.73290 0.57319 0.74259 -0.02600
C 	C 	0.88808 0.78349 0.70425 0.03600
C 	C 	0.83903 0.73231 0.60420 -0.07200
C 	C 	0.13406 0.20100 0.90142 0.02700
C 	C 	0.03794 0.15464 0.82163 -0.04600
C 	C 	0.00980 0.16937 0.74251 -0.02400
C 	C 	0.81615 0.92075 0.70426 0.03600
C 	C 	0.76516 0.87190 0.60420 -0.07200
C 	C 	0.68974 0.12285 0.93066 0.03000
C 	C 	0.65044 0.01952 0.87375 -0.05100
C 	C 	0.54730 0.98219 0.81709 -0.02600
C 	C 	0.24076 0.80765 0.93049 0.03100
C 	C 	0.22305 0.85397 0.87349 -0.05300
C 	C 	0.26942 0.83454 0.81672 -0.02400
C 	C 	0.36626 0.79919 0.09840 0.03100
C 	C 	0.46253 0.83224 0.17795 -0.05400
C 	C 	0.49088 0.92581 0.25746 -0.02700
C 	C 	0.73234 0.29941 0.09848 0.03100
C 	C 	0.71570 0.34599 0.17807 -0.05400
C 	C 	0.76697 0.33205 0.25765 -0.02600
C 	C 	0.25917 0.37713 0.06983 0.03000
C 	C 	0.27658 0.48040 0.12683 -0.05300
C 	C 	0.22984 0.51745 0.18328 -0.02400
C 	C 	0.57444 0.67345 0.29489 0.03900
C 	C 	0.62322 0.72444 0.39494 -0.07300
C 	C 	0.81062 0.69265 0.06978 0.03200
C 	C 	0.85016 0.64626 0.12668 -0.05200
C 	C 	0.95335 0.66569 0.18321 -0.02700
C 	C 	0.72048 0.62149 0.29489 0.03900
C 	C 	0.77174 0.67054 0.39494 -0.07300
C 	C 	0.19230 0.31026 0.06950 0.02400
C 	C 	0.14562 0.34948 0.12617 -0.05000
C 	C 	0.16497 0.45260 0.18296 -0.02600
C 	C 	0.12409 0.22135 0.29499 0.03800
C 	C 	0.17336 0.27272 0.39504 -0.07100
C 	C 	0.87719 0.75924 0.06955 0.03900
C 	C 	0.98053 0.77678 0.12634 -0.05900
C 	C 	0.01792 0.73035 0.18305 -0.01900
C 	C 	0.17095 0.07367 0.29499 0.03000
C 	C 	0.22170 0.12233 0.39504 -0.06900
C 	C 	0.29959 0.86610 0.09864 0.02900
C 	C 	0.33296 0.96223 0.17843 -0.04700
C 	C 	0.42666 0.99024 0.25770 -0.02200
C 	C 	0.79925 0.23274 0.09872 0.03000
C 	C 	0.84576 0.21650 0.17857 -0.05400
C 	C 	0.83143 0.26786 0.25789 -0.02700
C 	C 	0.62295 0.18946 0.93047 0.03200
C 	C 	0.51966 0.14996 0.87358 -0.05400
C 	C 	0.48250 0.04679 0.81702 -0.02300
C 	C 	0.32846 0.27900 0.70523 0.03900
C 	C 	0.27769 0.22763 0.60518 -0.07300
C 	C 	0.30736 0.74085 0.93030 0.03100
C 	C 	0.35368 0.72338 0.87333 -0.05300
C 	C 	0.33416 0.76987 0.81667 -0.02500
C 	C 	0.37674 0.42623 0.70524 0.03900
C 	C 	0.32746 0.37755 0.60518 -0.07300
C 	C 	0.70077 0.63378 0.90170 0.03000
C 	C 	0.65432 0.53747 0.82218 -0.05400
C 	C 	0.66862 0.50900 0.74278 -0.02700
C 	C 	0.20096 0.26799 0.90174 0.03200
C 	C 	0.16788 0.28492 0.82230 -0.05400
C 	C 	0.07422 0.23394 0.74284 -0.02600
C 	C 	0.77641 0.77641 0.55281 0.02600
C 	C 	0.72317 0.72318 0.44633 0.02600
C 	C 	0.22335 0.22335 0.44670 0.02500
C 	C 	0.27675 0.27676 0.55352 0.02700
C 	C 	0.82621 0.79900 0.99771 -0.12400
C 	C 	0.74493 0.84254 0.02135 0.04100
C 	C 	0.89660 0.87755 0.00047 0.40100
C 	C 	0.73441 0.94072 0.04500 -0.05900
C 	C 	0.66016 0.97337 0.06876 -0.01200
C 	C 	0.17149 0.19868 0.99765 -0.09000
C 	C 	0.27641 0.17879 0.02131 0.02300
C 	C 	0.10386 0.12289 0.00042 0.37000
C 	C 	0.31055 0.10420 0.04487 -0.05000
C 	C 	0.40857 0.09534 0.06868 -0.02700
C 	C 	0.80136 0.17381 0.00240 -0.10800
C 	C 	0.82116 0.25493 0.97854 0.03100
C 	C 	0.87712 0.10342 0.99968 0.38800
C 	C 	0.89542 0.26514 0.95448 -0.05400
C 	C 	0.90409 0.33914 0.93037 -0.02500
C 	C 	0.20107 0.82861 0.00239 -0.10700
C 	C 	0.15750 0.72373 0.97880 0.03300
C 	C 	0.12258 0.89627 0.99967 0.38800
C 	C 	0.05934 0.68961 0.95522 -0.05800
C 	C 	0.02674 0.59170 0.93174 -0.01200
C 	C 	0.32832 0.70081 0.00193 -0.10700
C 	C 	0.22349 0.65753 0.97867 0.03000
C 	C 	0.39563 0.62199 0.99859 0.38700
C 	C 	0.18929 0.55949 0.95533 -0.05000
C 	C 	0.09135 0.52706 0.93186 -0.02900
C 	C 	0.67364 0.30115 0.00194 -0.10800
C 	C 	0.75505 0.32100 0.97842 0.03100
C 	C 	0.60297 0.37662 0.99859 0.38800
C 	C 	0.76557 0.39537 0.95459 -0.05300
C 	C 	0.83962 0.40390 0.93049 -0.02600
C 	C 	0.29929 0.32653 0.99825 -0.10100
C 	C 	0.34262 0.24500 0.02156 0.03000
C 	C 	0.37810 0.39718 0.00159 0.38200
C 	C 	0.44077 0.23438 0.04520 -0.05300
C 	C 	0.47328 0.16002 0.06882 -0.02500
C 	C 	0.69893 0.67171 0.99820 -0.11300
C 	C 	0.67893 0.77655 0.02153 0.03200
C 	C 	0.62346 0.60439 0.00154 0.39300
C 	C 	0.60437 0.81079 0.04510 -0.05000
C 	C 	0.59552 0.90879 0.06878 -0.02900
N 	N 	0.87610 0.87611 0.75223 -0.25200
N 	N 	0.62356 0.62357 0.24708 -0.25200
N 	N 	0.12361 0.12359 0.24716 -0.25200
N 	N 	0.37651 0.37652 0.75305 -0.25200
O 	O 	0.88513 0.87356 0.92305 -0.49000
O 	O 	0.03789 0.04948 0.92302 -0.47000
O 	O 	0.86935 0.03745 0.92007 -0.46800
O 	O 	0.05071 0.88262 0.92008 -0.46400
O 	O 	0.46161 0.62567 0.07577 -0.48300
O 	O 	0.61417 0.45013 0.07575 -0.48300
O 	O 	0.44996 0.46298 0.08141 -0.46500
O 	O 	0.63142 0.61844 0.08137 -0.46700
O 	O 	0.11777 0.13060 0.08016 -0.46400
O 	O 	0.96244 0.94957 0.08020 -0.46700
O 	O 	0.12641 0.96202 0.07698 -0.47800
O 	O 	0.95061 0.11496 0.07697 -0.48300
O 	O 	0.53719 0.36867 0.91876 -0.46600
O 	O 	0.38157 0.55009 0.91877 -0.46600
O 	O 	0.54993 0.53848 0.92437 -0.48500
O 	O 	0.37446 0.38590 0.92440 -0.48000
