data_crystal

_cell_length_a 11.39200
_cell_length_b 18.74300
_cell_length_c 24.38600
_cell_angle_alpha 90.00000
_cell_angle_beta  90.00000
_cell_angle_gamma 90.00000

_symmetry_space_group_name_	'P 1'
_symmetry_space_group_name_H-M	'P 1'

loop_
_symmetry_equiv_pos_as_xyz
  x,y,z

loop_
_atom_site_label
_atom_site_type_symbol
_atom_site_fract_x
_atom_site_fract_y
_atom_site_fract_z
_atom_site_charge
Zn	Zn	0.53323 0.29907 0.51798 1.20600
Zn	Zn	0.53323 0.70093 0.48202 1.20600
Zn	Zn	0.46677 0.20093 0.01798 1.20400
Zn	Zn	0.46677 0.79907 0.98202 1.21000
Zn	Zn	0.53791 0.50000 0.50000 1.21900
Zn	Zn	0.46209 0.00000 -0.00000 1.21100
H 	H 	0.57470 0.47450 0.64490 0.02400
H 	H 	0.36790 0.40520 0.68220 0.19800
H 	H 	0.40510 0.48490 0.69520 0.19000
H 	H 	0.36530 0.46350 0.63520 0.19000
H 	H 	0.90670 0.39020 0.75640 0.03400
H 	H 	0.87100 0.21630 0.85370 0.04600
H 	H 	0.60580 0.27700 0.75340 0.04400
H 	H 	0.23840 0.46320 0.77490 0.16900
H 	H 	0.17890 0.47220 0.83320 0.17700
H 	H 	0.31650 0.46150 0.82860 0.17300
H 	H 	0.23570 0.35220 0.85540 0.02700
H 	H 	0.30760 0.19170 0.84340 0.19400
H 	H 	0.33010 0.14690 0.78930 0.18900
H 	H 	0.28410 0.10840 0.84300 0.18100
H 	H 	0.48690 0.08720 0.83080 0.01800
H 	H 	0.12430 0.24010 0.45040 0.09100
H 	H 	0.32370 0.25190 0.44940 0.00200
H 	H 	0.32350 0.34250 0.59260 -0.00100
H 	H 	0.11860 0.34080 0.59610 0.07800
H 	H 	0.94480 0.26820 0.59990 0.07700
H 	H 	0.73970 0.27170 0.59850 0.00900
H 	H 	0.74750 0.32910 0.44380 -0.00700
H 	H 	0.94620 0.31860 0.43960 0.08600
H 	H 	0.49380 0.16700 0.58710 -0.00700
H 	H 	0.50300 0.04540 0.58150 0.06100
H 	H 	0.59390 0.06360 0.42470 0.06000
H 	H 	0.58810 0.18570 0.43570 0.00500
H 	H 	0.74580 0.48090 0.57850 0.01000
H 	H 	0.94430 0.48460 0.58150 0.08200
H 	H 	0.12820 0.55850 0.56840 0.07600
H 	H 	0.32850 0.55760 0.56710 0.01600
H 	H 	0.54550 0.37780 0.72540 0.15000
H 	H 	0.08190 0.36230 0.76740 0.13300
H 	H 	0.50630 0.22810 0.81430 0.15300
H 	H 	0.57470 0.52550 0.35510 0.02400
H 	H 	0.36790 0.59480 0.31780 0.19800
H 	H 	0.40510 0.51510 0.30480 0.19000
H 	H 	0.36530 0.53650 0.36480 0.19000
H 	H 	0.90670 0.60980 0.24360 0.03400
H 	H 	0.87100 0.78370 0.14630 0.04800
H 	H 	0.60580 0.72300 0.24660 0.04500
H 	H 	0.23840 0.53680 0.22510 0.16900
H 	H 	0.17890 0.52780 0.16680 0.17500
H 	H 	0.31650 0.53850 0.17140 0.17200
H 	H 	0.23570 0.64780 0.14460 0.02600
H 	H 	0.30760 0.80830 0.15660 0.19800
H 	H 	0.33010 0.85310 0.21070 0.19800
H 	H 	0.28410 0.89160 0.15700 0.19400
H 	H 	0.48690 0.91280 0.16920 0.02700
H 	H 	0.12430 0.75990 0.54960 0.09300
H 	H 	0.32370 0.74810 0.55060 0.00300
H 	H 	0.32350 0.65750 0.40740 -0.00100
H 	H 	0.11860 0.65920 0.40390 0.07800
H 	H 	0.94480 0.73180 0.40010 0.07900
H 	H 	0.73970 0.72830 0.40150 0.01100
H 	H 	0.74750 0.67090 0.55620 -0.00700
H 	H 	0.94620 0.68140 0.56040 0.08600
H 	H 	0.49380 0.83300 0.41290 -0.01400
H 	H 	0.50300 0.95460 0.41850 0.09200
H 	H 	0.59390 0.93640 0.57530 0.08500
H 	H 	0.58810 0.81430 0.56430 -0.00300
H 	H 	0.74580 0.51910 0.42150 0.01000
H 	H 	0.94430 0.51540 0.41850 0.08200
H 	H 	0.12820 0.44150 0.43160 0.07600
H 	H 	0.32850 0.44240 0.43290 0.01600
H 	H 	0.54550 0.62220 0.27460 0.15000
H 	H 	0.08190 0.63770 0.23260 0.13400
H 	H 	0.50630 0.77190 0.18570 0.15400
H 	H 	0.42530 0.02550 0.14490 0.02000
H 	H 	0.63210 0.09480 0.18220 0.19400
H 	H 	0.59490 0.01510 0.19520 0.18100
H 	H 	0.63470 0.03650 0.13520 0.18100
H 	H 	0.09330 0.10980 0.25640 0.03200
H 	H 	0.12900 0.28370 0.35370 0.04700
H 	H 	0.39420 0.22300 0.25340 0.04400
H 	H 	0.76160 0.03680 0.27490 0.16200
H 	H 	0.82110 0.02780 0.33320 0.16800
H 	H 	0.68350 0.03850 0.32860 0.16500
H 	H 	0.76430 0.14780 0.35540 0.02700
H 	H 	0.69240 0.30830 0.34340 0.19500
H 	H 	0.66990 0.35310 0.28930 0.19300
H 	H 	0.71590 0.39160 0.34300 0.18600
H 	H 	0.51310 0.41280 0.33080 0.02200
H 	H 	0.87570 0.25990 0.95040 0.08900
H 	H 	0.67630 0.24810 0.94940 0.00200
H 	H 	0.67650 0.15750 0.09260 -0.00000
H 	H 	0.88140 0.15920 0.09610 0.07600
H 	H 	0.05520 0.23180 0.09990 0.07600
H 	H 	0.26030 0.22830 0.09850 0.01100
H 	H 	0.25250 0.17090 0.94380 -0.00900
H 	H 	0.05380 0.18140 0.93960 0.08300
H 	H 	0.50620 0.33300 0.08710 -0.00500
H 	H 	0.49700 0.45460 0.08150 0.06500
H 	H 	0.40610 0.43640 0.92470 0.06100
H 	H 	0.41190 0.31430 0.93570 0.00400
H 	H 	0.25420 0.01910 0.07850 0.00900
H 	H 	0.05570 0.01540 0.08150 0.07700
H 	H 	0.87180 0.94150 0.06840 0.07200
H 	H 	0.67150 0.94240 0.06710 0.01700
H 	H 	0.45450 0.12220 0.22540 0.14900
H 	H 	0.91810 0.13770 0.26740 0.13300
H 	H 	0.49370 0.27190 0.31430 0.15300
H 	H 	0.42530 0.97450 0.85510 0.02800
H 	H 	0.63210 0.90520 0.81780 0.20300
H 	H 	0.59490 0.98490 0.80480 0.19800
H 	H 	0.63470 0.96350 0.86480 0.19900
H 	H 	0.09330 0.89020 0.74360 0.03600
H 	H 	0.12900 0.71630 0.64630 0.04700
H 	H 	0.39420 0.77700 0.74660 0.04400
H 	H 	0.76160 0.96320 0.72510 0.17600
H 	H 	0.82110 0.97220 0.66680 0.18400
H 	H 	0.68350 0.96150 0.67140 0.18000
H 	H 	0.76430 0.85220 0.64460 0.02500
H 	H 	0.69240 0.69170 0.65660 0.19600
H 	H 	0.66990 0.64690 0.71070 0.19400
H 	H 	0.71590 0.60840 0.65700 0.18700
H 	H 	0.51310 0.58720 0.66920 0.02200
H 	H 	0.87570 0.74010 0.04960 0.09500
H 	H 	0.67630 0.75190 0.05060 0.00300
H 	H 	0.67650 0.84250 0.90740 -0.00100
H 	H 	0.88140 0.84080 0.90390 0.08100
H 	H 	0.05520 0.76820 0.90010 0.07900
H 	H 	0.26030 0.77170 0.90150 0.00900
H 	H 	0.25250 0.82910 0.05620 -0.00400
H 	H 	0.05380 0.81860 0.06040 0.09000
H 	H 	0.50620 0.66700 0.91290 -0.01600
H 	H 	0.49700 0.54540 0.91850 0.08700
H 	H 	0.40610 0.56360 0.07530 0.08500
H 	H 	0.41190 0.68570 0.06430 -0.00200
H 	H 	0.25420 0.98090 0.92150 0.00800
H 	H 	0.05570 0.98460 0.91850 0.07800
H 	H 	0.87180 0.05850 0.93160 0.06800
H 	H 	0.67150 0.05760 0.93290 0.01500
H 	H 	0.45450 0.87780 0.77460 0.15100
H 	H 	0.91810 0.86230 0.73260 0.13500
H 	H 	0.49370 0.72810 0.68570 0.15400
C 	C 	0.53500 0.38130 0.60300 0.28600
C 	C 	0.53210 0.42980 0.65330 0.09100
C 	C 	0.40630 0.44740 0.66780 -0.53200
C 	C 	0.70600 0.38630 0.70240 0.22600
C 	C 	0.75070 0.33960 0.74690 -0.06200
C 	C 	0.86190 0.35110 0.76850 0.00000
C 	C 	0.90670 0.30580 0.80730 -0.06600
C 	C 	0.83980 0.24770 0.82740 -0.00100
C 	C 	0.72710 0.23840 0.80730 -0.06300
C 	C 	0.68220 0.28390 0.76700 -0.00600
C 	C 	0.02880 0.31740 0.83160 0.23800
C 	C 	0.24120 0.44850 0.81300 -0.49000
C 	C 	0.22470 0.36700 0.81670 0.08400
C 	C 	0.31780 0.32990 0.78150 0.23500
C 	C 	0.65330 0.18010 0.83020 0.22600
C 	C 	0.33400 0.14620 0.82910 -0.51400
C 	C 	0.46030 0.13290 0.84700 0.07600
C 	C 	0.46370 0.12580 0.90960 0.34800
C 	C 	0.16230 0.26360 0.47950 -0.13900
C 	C 	0.28240 0.26860 0.48010 0.08300
C 	C 	0.28230 0.32220 0.56300 0.07900
C 	C 	0.15860 0.32200 0.56570 -0.13000
C 	C 	0.09770 0.29260 0.52110 0.06200
C 	C 	0.96790 0.29440 0.52220 0.05700
C 	C 	0.90570 0.28010 0.56720 -0.12300
C 	C 	0.78180 0.28260 0.56640 0.07100
C 	C 	0.78790 0.31490 0.47560 0.08200
C 	C 	0.90610 0.31090 0.47270 -0.12700
C 	C 	0.51510 0.14610 0.55350 0.07400
C 	C 	0.51990 0.07270 0.55020 -0.11500
C 	C 	0.54860 0.03890 0.50270 0.01400
C 	C 	0.57370 0.08310 0.45890 -0.10600
C 	C 	0.56880 0.15660 0.46570 0.06600
C 	C 	0.78730 0.48940 0.54580 0.08100
C 	C 	0.90600 0.49040 0.54770 -0.13100
C 	C 	0.16740 0.53420 0.54000 -0.11500
C 	C 	0.28780 0.53350 0.53910 0.05700
C 	C 	0.53500 0.61870 0.39700 0.28600
C 	C 	0.53210 0.57020 0.34670 0.09100
C 	C 	0.40630 0.55260 0.33220 -0.53200
C 	C 	0.70600 0.61370 0.29760 0.22600
C 	C 	0.75070 0.66040 0.25310 -0.06200
C 	C 	0.86190 0.64890 0.23150 0.00000
C 	C 	0.90670 0.69420 0.19270 -0.06600
C 	C 	0.83980 0.75230 0.17260 -0.00100
C 	C 	0.72710 0.76160 0.19270 -0.06000
C 	C 	0.68220 0.71610 0.23300 -0.00700
C 	C 	0.02880 0.68260 0.16840 0.23800
C 	C 	0.24120 0.55150 0.18700 -0.48800
C 	C 	0.22470 0.63300 0.18330 0.08300
C 	C 	0.31780 0.67010 0.21850 0.23400
C 	C 	0.65330 0.81990 0.16980 0.22600
C 	C 	0.33400 0.85380 0.17090 -0.52700
C 	C 	0.46030 0.86710 0.15300 0.08000
C 	C 	0.46370 0.87420 0.09040 0.34800
C 	C 	0.16230 0.73640 0.52050 -0.13900
C 	C 	0.28240 0.73140 0.51990 0.08400
C 	C 	0.28230 0.67780 0.43700 0.08100
C 	C 	0.15860 0.67800 0.43430 -0.13000
C 	C 	0.09770 0.70740 0.47890 0.06300
C 	C 	0.96790 0.70560 0.47780 0.05800
C 	C 	0.90570 0.71990 0.43280 -0.12300
C 	C 	0.78180 0.71740 0.43360 0.07200
C 	C 	0.78790 0.68510 0.52440 0.08200
C 	C 	0.90610 0.68910 0.52730 -0.12700
C 	C 	0.51510 0.85390 0.44650 0.10500
C 	C 	0.51990 0.92730 0.44980 -0.16400
C 	C 	0.54860 0.96110 0.49730 0.10200
C 	C 	0.57370 0.91690 0.54110 -0.15100
C 	C 	0.56880 0.84340 0.53430 0.09400
C 	C 	0.78730 0.51060 0.45420 0.08100
C 	C 	0.90600 0.50960 0.45230 -0.13100
C 	C 	0.16740 0.46580 0.46000 -0.11500
C 	C 	0.28780 0.46650 0.46090 0.05700
C 	C 	0.46500 0.11870 0.10300 0.28700
C 	C 	0.46790 0.07020 0.15330 0.08700
C 	C 	0.59370 0.05260 0.16780 -0.52000
C 	C 	0.29400 0.11370 0.20240 0.22500
C 	C 	0.24930 0.16040 0.24690 -0.06300
C 	C 	0.13810 0.14890 0.26850 0.00000
C 	C 	0.09330 0.19420 0.30730 -0.06700
C 	C 	0.16020 0.25230 0.32740 -0.00100
C 	C 	0.27290 0.26160 0.30730 -0.06200
C 	C 	0.31780 0.21610 0.26700 -0.00600
C 	C 	0.97120 0.18260 0.33160 0.23700
C 	C 	0.75880 0.05150 0.31300 -0.47600
C 	C 	0.77530 0.13300 0.31670 0.07800
C 	C 	0.68220 0.17010 0.28150 0.23600
C 	C 	0.34670 0.31990 0.33020 0.22600
C 	C 	0.66600 0.35380 0.32910 -0.51900
C 	C 	0.53970 0.36710 0.34700 0.07700
C 	C 	0.53630 0.37420 0.40960 0.34900
C 	C 	0.83770 0.23640 0.97950 -0.12300
C 	C 	0.71760 0.23140 0.98010 0.09100
C 	C 	0.71770 0.17780 0.06300 0.07500
C 	C 	0.84140 0.17800 0.06570 -0.12600
C 	C 	0.90230 0.20740 0.02110 0.04800
C 	C 	0.03210 0.20560 0.02220 0.04700
C 	C 	0.09430 0.21990 0.06720 -0.12000
C 	C 	0.21820 0.21740 0.06640 0.06800
C 	C 	0.21210 0.18510 0.97560 0.09100
C 	C 	0.09390 0.18910 0.97270 -0.11400
C 	C 	0.48490 0.35390 0.05350 0.07200
C 	C 	0.48010 0.42730 0.05020 -0.11100
C 	C 	0.45140 0.46110 0.00270 0.00500
C 	C 	0.42630 0.41690 0.95890 -0.09100
C 	C 	0.43120 0.34340 0.96570 0.07600
C 	C 	0.21270 0.01060 0.04580 0.07100
C 	C 	0.09400 0.00960 0.04770 -0.12700
C 	C 	0.83260 0.96580 0.04000 -0.08500
C 	C 	0.71220 0.96650 0.03910 0.06500
C 	C 	0.46500 0.88130 0.89700 0.28300
C 	C 	0.46790 0.92980 0.84670 0.09700
C 	C 	0.59370 0.94740 0.83220 -0.54400
C 	C 	0.29400 0.88630 0.79760 0.22700
C 	C 	0.24930 0.83960 0.75310 -0.06100
C 	C 	0.13810 0.85110 0.73150 0.00000
C 	C 	0.09330 0.80580 0.69270 -0.06500
C 	C 	0.16020 0.74770 0.67260 -0.00100
C 	C 	0.27290 0.73840 0.69270 -0.06100
C 	C 	0.31780 0.78390 0.73300 -0.00600
C 	C 	0.97120 0.81740 0.66840 0.23900
C 	C 	0.75880 0.94850 0.68700 -0.50200
C 	C 	0.77530 0.86700 0.68330 0.08800
C 	C 	0.68220 0.82990 0.71850 0.23300
C 	C 	0.34670 0.68010 0.66980 0.22600
C 	C 	0.66600 0.64620 0.67090 -0.52000
C 	C 	0.53970 0.63290 0.65300 0.07700
C 	C 	0.53630 0.62580 0.59040 0.34900
C 	C 	0.83770 0.76360 0.02050 -0.15200
C 	C 	0.71760 0.76860 0.01990 0.07700
C 	C 	0.71770 0.82220 0.93700 0.08500
C 	C 	0.84140 0.82200 0.93430 -0.13300
C 	C 	0.90230 0.79260 0.97890 0.07600
C 	C 	0.03210 0.79440 0.97780 0.06700
C 	C 	0.09430 0.78010 0.93280 -0.12500
C 	C 	0.21820 0.78260 0.93360 0.07500
C 	C 	0.21210 0.81490 0.02440 0.07600
C 	C 	0.09390 0.81090 0.02730 -0.13600
C 	C 	0.48490 0.64610 0.94650 0.10800
C 	C 	0.48010 0.57270 0.94980 -0.16800
C 	C 	0.45140 0.53890 0.99730 0.11000
C 	C 	0.42630 0.58310 0.04110 -0.16700
C 	C 	0.43120 0.65660 0.03430 0.08500
C 	C 	0.21270 0.98940 0.95420 0.10200
C 	C 	0.09400 0.99040 0.95230 -0.09900
C 	C 	0.83260 0.03420 0.96000 -0.09300
C 	C 	0.71220 0.03350 0.96090 0.05600
C 	C 	0.97230 0.50000 0.50000 0.05800
C 	C 	0.10240 0.50000 0.50000 0.04500
C 	C 	0.02770 0.00000 -0.00000 0.03100
C 	C 	0.89760 0.00000 -0.00000 0.00900
N 	N 	0.58900 0.39450 0.69900 -0.23200
N 	N 	0.10430 0.34990 0.80020 -0.23500
N 	N 	0.53590 0.18900 0.82760 -0.23200
N 	N 	0.34450 0.29580 0.52180 -0.24200
N 	N 	0.72290 0.30010 0.52060 -0.23800
N 	N 	0.53850 0.18780 0.51220 -0.25300
N 	N 	0.58900 0.60550 0.30100 -0.23200
N 	N 	0.10430 0.65010 0.19980 -0.23500
N 	N 	0.53590 0.81100 0.17240 -0.23100
N 	N 	0.34450 0.70420 0.47820 -0.24200
N 	N 	0.72290 0.69990 0.47940 -0.23800
N 	N 	0.53850 0.81220 0.48780 -0.26300
N 	N 	0.41100 0.10550 0.19900 -0.23200
N 	N 	0.89570 0.15010 0.30020 -0.23500
N 	N 	0.46410 0.31100 0.32760 -0.23100
N 	N 	0.65550 0.20420 0.02180 -0.24800
N 	N 	0.27710 0.19990 0.02060 -0.24500
N 	N 	0.46150 0.31220 0.01220 -0.26000
N 	N 	0.41100 0.89450 0.80100 -0.23200
N 	N 	0.89570 0.84990 0.69980 -0.23600
N 	N 	0.46410 0.68900 0.67240 -0.23100
N 	N 	0.65550 0.79580 0.97820 -0.23600
N 	N 	0.27710 0.80010 0.97940 -0.23200
N 	N 	0.46150 0.68780 0.98780 -0.25700
N 	N 	0.72700 0.50000 0.50000 -0.23800
N 	N 	0.35040 0.50000 0.50000 -0.23500
N 	N 	0.27300 0.00000 -0.00000 -0.25600
N 	N 	0.64960 0.00000 -0.00000 -0.25300
O 	O 	0.53300 0.40830 0.55456 -0.51100
O 	O 	0.53630 0.31460 0.60777 -0.37500
O 	O 	0.77300 0.41420 0.66860 -0.23800
O 	O 	0.28390 0.29450 0.74050 -0.23700
O 	O 	0.42170 0.33500 0.79570 -0.25500
O 	O 	0.05210 0.29670 0.87750 -0.24500
O 	O 	0.47490 0.18200 0.93663 -0.45000
O 	O 	0.45400 0.06410 0.92958 -0.44800
O 	O 	0.69690 0.12660 0.85160 -0.24900
O 	O 	0.53300 0.59170 0.44544 -0.51100
O 	O 	0.53630 0.68540 0.39223 -0.37300
O 	O 	0.77300 0.58580 0.33140 -0.23700
O 	O 	0.28390 0.70550 0.25950 -0.23500
O 	O 	0.42170 0.66500 0.20430 -0.25500
O 	O 	0.05210 0.70330 0.12250 -0.24800
O 	O 	0.47490 0.81800 0.06337 -0.45700
O 	O 	0.45400 0.93590 0.07042 -0.43700
O 	O 	0.69690 0.87340 0.14840 -0.24100
O 	O 	0.46700 0.09170 0.05456 -0.51600
O 	O 	0.46370 0.18540 0.10777 -0.37500
O 	O 	0.22700 0.08580 0.16860 -0.24000
O 	O 	0.71610 0.20550 0.24050 -0.23700
O 	O 	0.57830 0.16500 0.29570 -0.25600
O 	O 	0.94790 0.20330 0.37750 -0.24700
O 	O 	0.52510 0.31800 0.43663 -0.45500
O 	O 	0.54600 0.43590 0.42958 -0.44700
O 	O 	0.30310 0.37340 0.35160 -0.24500
O 	O 	0.46700 0.90830 0.94544 -0.50000
O 	O 	0.46370 0.81460 0.89223 -0.37300
O 	O 	0.22700 0.91420 0.83140 -0.23500
O 	O 	0.71610 0.79450 0.75950 -0.23600
O 	O 	0.57830 0.83500 0.70430 -0.25300
O 	O 	0.94790 0.79670 0.62250 -0.24600
O 	O 	0.52510 0.68200 0.56337 -0.45500
O 	O 	0.54600 0.56410 0.57042 -0.44700
O 	O 	0.30310 0.62660 0.64840 -0.24500
