data_crystal

_cell_length_a 8.66900
_cell_length_b 9.09700
_cell_length_c 17.93200
_cell_angle_alpha 90.00000
_cell_angle_beta  90.00000
_cell_angle_gamma 108.32000

_symmetry_space_group_name_	'P 1'
_symmetry_space_group_name_H-M	'P 1'

loop_
_symmetry_equiv_pos_as_xyz
  x,y,z

loop_
_atom_site_label
_atom_site_type_symbol
_atom_site_fract_x
_atom_site_fract_y
_atom_site_fract_z
_atom_site_charge
Ga	Ga	0.86730 0.33400 0.39180 2.08500
Ga	Ga	0.93080 0.20070 0.20620 2.08500
Ga	Ga	0.48700 0.30100 0.17430 2.07900
Ga	Ga	0.63270 0.16600 0.89180 2.08500
Ga	Ga	0.56920 0.29930 0.70620 2.08500
Ga	Ga	0.01300 0.19900 0.67430 2.07700
Ga	Ga	0.13270 0.66600 0.60820 2.08400
Ga	Ga	0.06920 0.79930 0.79380 2.08400
Ga	Ga	0.51300 0.69900 0.82570 2.07800
Ga	Ga	0.36730 0.83400 0.10820 2.08400
Ga	Ga	0.43080 0.70070 0.29380 2.08500
Ga	Ga	0.98700 0.80100 0.32570 2.07700
P 	P 	0.66050 0.12820 0.07020 0.70000
P 	P 	0.70170 0.51770 0.28740 0.68400
P 	P 	0.74610 0.99300 0.33600 0.65100
P 	P 	0.83950 0.37180 0.57020 0.70700
P 	P 	0.79830 0.98230 0.78740 0.67600
P 	P 	0.75390 0.50700 0.83600 0.65200
P 	P 	0.33950 0.87180 0.92980 0.70000
P 	P 	0.29830 0.48230 0.71260 0.68400
P 	P 	0.25390 0.00700 0.66400 0.65100
P 	P 	0.16050 0.62820 0.42980 0.70700
P 	P 	0.20170 0.01770 0.21260 0.67600
P 	P 	0.24610 0.49300 0.16400 0.65200
O 	O 	0.89420 0.94340 0.35640 -0.67600
O 	O 	0.75090 0.12520 0.39040 -0.58900
O 	O 	0.71960 0.16760 0.99150 -0.52500
O 	O 	0.73430 0.44540 0.35890 -0.64200
O 	O 	0.80870 0.17840 0.11970 -0.61300
O 	O 	0.57590 0.95340 0.07770 -0.61000
O 	O 	0.75230 0.04610 0.25470 -0.61800
O 	O 	0.54990 0.56210 0.29960 -0.65100
O 	O 	0.58910 0.86240 0.34880 -0.54000
O 	O 	0.67510 0.40190 0.22210 -0.69500
O 	O 	0.84920 0.65680 0.26560 -0.67500
O 	O 	0.53920 0.21440 0.09050 -0.69100
O 	O 	0.97020 0.32060 0.29440 -0.77500
O 	O 	0.60580 0.55660 0.85640 -0.67400
O 	O 	0.74910 0.37480 0.89040 -0.58800
O 	O 	0.78040 0.33240 0.49150 -0.53000
O 	O 	0.76570 0.05460 0.85890 -0.63600
O 	O 	0.69130 0.32160 0.61970 -0.61000
O 	O 	0.92410 0.54660 0.57770 -0.61000
O 	O 	0.74770 0.45390 0.75470 -0.61400
O 	O 	0.95010 0.93790 0.79960 -0.64800
O 	O 	0.91090 0.63760 0.84880 -0.53600
O 	O 	0.82490 0.09810 0.72210 -0.68800
O 	O 	0.65080 0.84320 0.76560 -0.67200
O 	O 	0.96080 0.28560 0.59050 -0.68600
O 	O 	0.52980 0.17940 0.79440 -0.77200
O 	O 	0.10580 0.05660 0.64360 -0.67600
O 	O 	0.24910 0.87480 0.60960 -0.58900
O 	O 	0.28040 0.83240 0.00850 -0.52500
O 	O 	0.26570 0.55460 0.64110 -0.64200
O 	O 	0.19130 0.82160 0.88030 -0.61300
O 	O 	0.42410 0.04660 0.92230 -0.61000
O 	O 	0.24770 0.95390 0.74530 -0.61800
O 	O 	0.45010 0.43790 0.70040 -0.65100
O 	O 	0.41090 0.13760 0.65120 -0.54000
O 	O 	0.32490 0.59810 0.77790 -0.69500
O 	O 	0.15080 0.34320 0.73440 -0.67500
O 	O 	0.46080 0.78560 0.90950 -0.69100
O 	O 	0.02980 0.67940 0.70560 -0.77500
O 	O 	0.39420 0.44340 0.14360 -0.67400
O 	O 	0.25090 0.62520 0.10960 -0.58800
O 	O 	0.21960 0.66760 0.50850 -0.53000
O 	O 	0.23430 0.94540 0.14110 -0.63600
O 	O 	0.30870 0.67840 0.38030 -0.61000
O 	O 	0.07590 0.45340 0.42230 -0.61000
O 	O 	0.25230 0.54610 0.24530 -0.61400
O 	O 	0.04990 0.06210 0.20040 -0.64800
O 	O 	0.08910 0.36240 0.15120 -0.53600
O 	O 	0.17510 0.90190 0.27790 -0.68800
O 	O 	0.34920 0.15680 0.23440 -0.67200
O 	O 	0.03920 0.71440 0.40950 -0.68600
O 	O 	0.47020 0.82060 0.20560 -0.77200
