data_crystal

_cell_length_a 7.60010
_cell_length_b 9.97580
_cell_length_c 17.51080
_cell_angle_alpha 90.00000
_cell_angle_beta  90.00000
_cell_angle_gamma 90.00000

_symmetry_space_group_name_	'P 1'
_symmetry_space_group_name_H-M	'P 1'

loop_
_symmetry_equiv_pos_as_xyz
  x,y,z

loop_
_atom_site_label
_atom_site_type_symbol
_atom_site_fract_x
_atom_site_fract_y
_atom_site_fract_z
_atom_site_charge
Zn	Zn	0.34975 0.25000 0.41926 1.13400
Zn	Zn	0.48977 0.25000 0.76296 1.16700
Zn	Zn	0.15025 0.75000 0.91926 1.13500
Zn	Zn	0.01023 0.75000 0.26296 1.16700
Zn	Zn	0.65025 0.75000 0.58074 1.13500
Zn	Zn	0.51023 0.75000 0.23704 1.16800
Zn	Zn	0.84975 0.25000 0.08074 1.13500
Zn	Zn	0.98977 0.25000 0.73704 1.16700
H 	H 	0.53720 0.45920 0.31840 -0.06700
H 	H 	0.03790 0.46830 0.37230 -0.06300
H 	H 	0.96280 0.54080 0.81840 -0.06700
H 	H 	0.46210 0.53170 0.87230 -0.06300
H 	H 	0.46280 0.95920 0.68160 -0.06700
H 	H 	0.96210 0.96830 0.62770 -0.06200
H 	H 	0.03720 0.04080 0.18160 -0.06000
H 	H 	0.53790 0.03170 0.12770 -0.06200
H 	H 	0.46280 0.54080 0.68160 -0.06700
H 	H 	0.96210 0.53170 0.62770 -0.06300
H 	H 	0.03720 0.45920 0.18160 -0.06700
H 	H 	0.53790 0.46830 0.12770 -0.06300
H 	H 	0.53720 0.04080 0.31840 -0.06700
H 	H 	0.03790 0.03170 0.37230 -0.06200
H 	H 	0.96280 0.95920 0.81840 -0.06000
H 	H 	0.46210 0.96830 0.87230 -0.06200
H 	H 	0.53530 0.25000 0.57770 -0.06600
H 	H 	0.02620 0.25000 0.54290 -0.06400
H 	H 	0.96470 0.75000 0.07770 -0.06100
H 	H 	0.47380 0.75000 0.04290 -0.06500
H 	H 	0.46470 0.75000 0.42230 -0.06600
H 	H 	0.97380 0.75000 0.45710 -0.06400
H 	H 	0.03530 0.25000 0.92230 -0.06100
H 	H 	0.52620 0.25000 0.95710 -0.06500
C 	C 	0.41760 0.48589 0.32250 0.07200
C 	C 	0.14950 0.49060 0.35145 0.09200
C 	C 	0.08240 0.51411 0.82250 0.07300
C 	C 	0.35050 0.50940 0.85145 0.09200
C 	C 	0.58240 0.98589 0.67750 0.07200
C 	C 	0.85050 0.99060 0.64855 0.09400
C 	C 	0.91760 0.01411 0.17750 0.05900
C 	C 	0.64950 0.00940 0.14855 0.08700
C 	C 	0.58240 0.51411 0.67750 0.07200
C 	C 	0.85050 0.50940 0.64855 0.09200
C 	C 	0.91760 0.48589 0.17750 0.07300
C 	C 	0.64950 0.49060 0.14855 0.09200
C 	C 	0.41760 0.01411 0.32250 0.07200
C 	C 	0.14950 0.00940 0.35145 0.09400
C 	C 	0.08240 0.98589 0.82250 0.05900
C 	C 	0.35050 0.99060 0.85145 0.08700
C 	C 	0.41170 0.25000 0.58588 0.07000
C 	C 	0.13810 0.25000 0.56714 0.09000
C 	C 	0.08830 0.75000 0.08588 0.06500
C 	C 	0.36190 0.75000 0.06714 0.09000
C 	C 	0.58830 0.75000 0.41412 0.07000
C 	C 	0.86190 0.75000 0.43286 0.09000
C 	C 	0.91170 0.25000 0.91412 0.06500
C 	C 	0.63810 0.25000 0.93286 0.09000
N 	N 	0.29570 0.41598 0.36170 -0.32800
N 	N 	0.35388 0.59487 0.29041 -0.23400
N 	N 	0.17832 0.59813 0.30931 -0.23900
N 	N 	0.20430 0.58402 0.86170 -0.32800
N 	N 	0.14612 0.40513 0.79041 -0.23300
N 	N 	0.32168 0.40187 0.80931 -0.23800
N 	N 	0.70430 0.91598 0.63830 -0.32800
N 	N 	0.64612 0.09487 0.70959 -0.23400
N 	N 	0.82168 0.09813 0.69069 -0.24000
N 	N 	0.79570 0.08402 0.13830 -0.32600
N 	N 	0.85388 0.90513 0.20959 -0.22900
N 	N 	0.67832 0.90187 0.19069 -0.23600
N 	N 	0.70430 0.58402 0.63830 -0.32800
N 	N 	0.64612 0.40513 0.70959 -0.23400
N 	N 	0.82168 0.40187 0.69069 -0.23900
N 	N 	0.79570 0.41598 0.13830 -0.32800
N 	N 	0.85388 0.59487 0.20959 -0.23300
N 	N 	0.67832 0.59813 0.19069 -0.23800
N 	N 	0.29570 0.08402 0.36170 -0.32800
N 	N 	0.35388 0.90513 0.29041 -0.23400
N 	N 	0.17832 0.90187 0.30931 -0.24000
N 	N 	0.20430 0.91598 0.86170 -0.32600
N 	N 	0.14612 0.09487 0.79041 -0.22900
N 	N 	0.32168 0.09813 0.80931 -0.23600
N 	N 	0.29270 0.25000 0.52887 -0.33200
N 	N 	0.33890 0.25000 0.65435 -0.22600
N 	N 	0.16030 0.25000 0.64200 -0.24200
N 	N 	0.20730 0.75000 0.02887 -0.33100
N 	N 	0.16110 0.75000 0.15435 -0.22600
N 	N 	0.33970 0.75000 0.14200 -0.24300
N 	N 	0.70730 0.75000 0.47113 -0.33200
N 	N 	0.66110 0.75000 0.34565 -0.22600
N 	N 	0.83970 0.75000 0.35800 -0.24200
N 	N 	0.79270 0.25000 0.97113 -0.33100
N 	N 	0.83890 0.25000 0.84565 -0.22600
N 	N 	0.66030 0.25000 0.85800 -0.24300
