data_crystal

_cell_length_a 15.66200
_cell_length_b 15.66210
_cell_length_c 18.20730
_cell_angle_alpha 90.00000
_cell_angle_beta  90.00000
_cell_angle_gamma 90.00000

_symmetry_space_group_name_	'P 1'
_symmetry_space_group_name_H-M	'P 1'

loop_
_symmetry_equiv_pos_as_xyz
  x,y,z

loop_
_atom_site_label
_atom_site_type_symbol
_atom_site_fract_x
_atom_site_fract_y
_atom_site_fract_z
_atom_site_charge
Zn	Zn	0.69657 0.86079 0.40341 1.17200
Zn	Zn	0.50257 0.83501 0.68329 1.17100
Zn	Zn	0.80343 0.13921 0.90341 1.17100
Zn	Zn	0.99743 0.16499 0.18329 1.17000
Zn	Zn	0.30343 0.36079 0.09659 1.17000
Zn	Zn	0.49743 0.33501 0.81671 1.17000
Zn	Zn	0.19657 0.63921 0.59659 1.17000
Zn	Zn	0.00257 0.66499 0.31671 1.17000
Zn	Zn	0.30343 0.13921 0.59659 1.17100
Zn	Zn	0.49743 0.16499 0.31671 1.17000
Zn	Zn	0.19657 0.86079 0.09659 1.17000
Zn	Zn	0.00257 0.83501 0.81671 1.16900
Zn	Zn	0.69657 0.63921 0.90341 1.17000
Zn	Zn	0.50257 0.66499 0.18329 1.17000
Zn	Zn	0.80343 0.36079 0.40341 1.17000
Zn	Zn	0.99743 0.33501 0.68329 1.17000
H 	H 	0.89050 0.94000 0.42090 -0.00100
H 	H 	0.01940 0.85850 0.38850 -0.00700
H 	H 	0.63720 0.66370 0.43190 -0.01000
H 	H 	0.73040 0.96130 0.25200 -0.01000
H 	H 	0.76520 0.93890 0.55830 -0.00400
H 	H 	0.55660 0.81810 0.51780 -0.06800
H 	H 	0.68420 0.92710 0.67150 -0.00400
H 	H 	0.58980 0.81240 0.26810 -0.06900
H 	H 	0.55830 0.58320 0.33960 -0.00200
H 	H 	0.63950 0.07490 0.20800 0.00200
H 	H 	0.56750 0.01260 0.40430 -0.07000
H 	H 	0.81750 0.71910 0.34770 -0.05900
H 	H 	0.60950 0.06000 0.92090 -0.00400
H 	H 	0.48060 0.14150 0.88850 -0.00200
H 	H 	0.86280 0.33630 0.93190 -0.01000
H 	H 	0.76960 0.03870 0.75200 -0.00800
H 	H 	0.73480 0.06110 0.05830 -0.00500
H 	H 	0.94340 0.18190 0.01780 -0.06800
H 	H 	0.81580 0.07290 0.17150 -0.00500
H 	H 	0.91020 0.18760 0.76810 -0.07000
H 	H 	0.94170 0.41680 0.83960 -0.00200
H 	H 	0.86050 0.92510 0.70800 -0.00100
H 	H 	0.93250 0.98740 0.90430 -0.07000
H 	H 	0.68250 0.28090 0.84770 -0.05900
H 	H 	0.10950 0.44000 0.07910 -0.00300
H 	H 	0.98060 0.35850 0.11150 -0.00200
H 	H 	0.36280 0.16370 0.06810 -0.01000
H 	H 	0.26960 0.46130 0.24800 -0.01000
H 	H 	0.23480 0.43890 0.94170 -0.00500
H 	H 	0.44340 0.31810 0.98220 -0.06800
H 	H 	0.31580 0.42710 0.82850 -0.00400
H 	H 	0.41020 0.31240 0.23190 -0.06900
H 	H 	0.44170 0.08320 0.16040 -0.00200
H 	H 	0.36050 0.57490 0.29200 0.00100
H 	H 	0.43250 0.51260 0.09570 -0.07000
H 	H 	0.18250 0.21910 0.15230 -0.05900
H 	H 	0.39050 0.56000 0.57910 -0.00300
H 	H 	0.51940 0.64150 0.61150 -0.00200
H 	H 	0.13720 0.83630 0.56810 -0.01000
H 	H 	0.23040 0.53870 0.74800 -0.01000
H 	H 	0.26520 0.56110 0.44170 -0.00500
H 	H 	0.05660 0.68190 0.48220 -0.06800
H 	H 	0.18420 0.57290 0.32850 -0.00400
H 	H 	0.08980 0.68760 0.73190 -0.06900
H 	H 	0.05830 0.91680 0.66040 -0.00400
H 	H 	0.13950 0.42510 0.79200 0.00100
H 	H 	0.06750 0.48740 0.59570 -0.07000
H 	H 	0.31750 0.78090 0.65230 -0.05900
H 	H 	0.10950 0.06000 0.57910 -0.00100
H 	H 	0.98060 0.14150 0.61150 -0.00700
H 	H 	0.36280 0.33630 0.56810 -0.01000
H 	H 	0.26960 0.03870 0.74800 -0.01000
H 	H 	0.23480 0.06110 0.44170 -0.00400
H 	H 	0.44340 0.18190 0.48220 -0.06800
H 	H 	0.31580 0.07290 0.32850 -0.00400
H 	H 	0.41020 0.18760 0.73190 -0.06900
H 	H 	0.44170 0.41680 0.66040 -0.00200
H 	H 	0.36050 0.92510 0.79200 0.00200
H 	H 	0.43250 0.98740 0.59570 -0.07000
H 	H 	0.18250 0.28090 0.65230 -0.05900
H 	H 	0.39050 0.94000 0.07910 -0.00400
H 	H 	0.51940 0.85850 0.11150 -0.00200
H 	H 	0.13720 0.66370 0.06810 -0.01000
H 	H 	0.23040 0.96130 0.24800 -0.00800
H 	H 	0.26520 0.93890 0.94170 -0.00500
H 	H 	0.05660 0.81810 0.98220 -0.06800
H 	H 	0.18420 0.92710 0.82850 -0.00500
H 	H 	0.08980 0.81240 0.23190 -0.07000
H 	H 	0.05830 0.58320 0.16040 -0.00200
H 	H 	0.13950 0.07490 0.29200 -0.00100
H 	H 	0.06750 0.01260 0.09570 -0.07000
H 	H 	0.31750 0.71910 0.15230 -0.05900
H 	H 	0.89050 0.56000 0.92090 -0.00300
H 	H 	0.01940 0.64150 0.88850 -0.00200
H 	H 	0.63720 0.83630 0.93190 -0.01000
H 	H 	0.73040 0.53870 0.75200 -0.01000
H 	H 	0.76520 0.56110 0.05830 -0.00500
H 	H 	0.55660 0.68190 0.01780 -0.06800
H 	H 	0.68420 0.57290 0.17150 -0.00400
H 	H 	0.58980 0.68760 0.76810 -0.06900
H 	H 	0.55830 0.91680 0.83960 -0.00200
H 	H 	0.63950 0.42510 0.70800 0.00100
H 	H 	0.56750 0.48740 0.90430 -0.07000
H 	H 	0.81750 0.78090 0.84770 -0.05900
H 	H 	0.60950 0.44000 0.42090 -0.00300
H 	H 	0.48060 0.35850 0.38850 -0.00200
H 	H 	0.86280 0.16370 0.43190 -0.01000
H 	H 	0.76960 0.46130 0.25200 -0.01000
H 	H 	0.73480 0.43890 0.55830 -0.00500
H 	H 	0.94340 0.31810 0.51780 -0.06800
H 	H 	0.81580 0.42710 0.67150 -0.00400
H 	H 	0.91020 0.31240 0.26810 -0.06900
H 	H 	0.94170 0.08320 0.33960 -0.00400
H 	H 	0.86050 0.57490 0.20800 0.00100
H 	H 	0.93250 0.51260 0.40430 -0.07000
H 	H 	0.68250 0.21910 0.34770 -0.05900
C 	C 	0.89090 0.88510 0.40140 -0.01000
C 	C 	0.96330 0.84000 0.38280 -0.00400
C 	C 	0.61840 0.68460 0.38700 0.00100
C 	C 	0.68570 0.98570 0.27830 0.00500
C 	C 	0.71200 0.91300 0.56300 -0.01000
C 	C 	0.59930 0.84820 0.54220 0.10800
C 	C 	0.66710 0.90630 0.62600 -0.00900
C 	C 	0.59200 0.76420 0.29780 0.10600
C 	C 	0.57430 0.64020 0.33590 -0.01100
C 	C 	0.63630 0.04930 0.25390 -0.01900
C 	C 	0.59780 0.01470 0.36040 0.09900
C 	C 	0.85170 0.76520 0.36090 0.08500
C 	C 	0.60910 0.11490 0.90140 -0.00700
C 	C 	0.53670 0.16000 0.88280 -0.01300
C 	C 	0.88160 0.31540 0.88700 0.00100
C 	C 	0.81430 0.01430 0.77830 -0.00400
C 	C 	0.78800 0.08700 0.06300 -0.01000
C 	C 	0.90070 0.15180 0.04220 0.10800
C 	C 	0.83290 0.09370 0.12600 -0.00900
C 	C 	0.90800 0.23580 0.79780 0.10600
C 	C 	0.92570 0.35980 0.83590 -0.01100
C 	C 	0.86370 0.95070 0.75390 -0.00900
C 	C 	0.90220 0.98530 0.86040 0.10400
C 	C 	0.64830 0.23480 0.86090 0.08400
C 	C 	0.10910 0.38510 0.09860 -0.00700
C 	C 	0.03670 0.34000 0.11720 -0.01100
C 	C 	0.38160 0.18460 0.11300 0.00100
C 	C 	0.31430 0.48570 0.22170 0.00400
C 	C 	0.28800 0.41300 0.93700 -0.01000
C 	C 	0.40070 0.34820 0.95780 0.10800
C 	C 	0.33290 0.40630 0.87400 -0.00900
C 	C 	0.40800 0.26420 0.20220 0.10600
C 	C 	0.42570 0.14020 0.16410 -0.01100
C 	C 	0.36370 0.54930 0.24610 -0.01600
C 	C 	0.40220 0.51470 0.13960 0.10000
C 	C 	0.14830 0.26520 0.13910 0.08500
C 	C 	0.39090 0.61490 0.59860 -0.00700
C 	C 	0.46330 0.66000 0.61720 -0.01300
C 	C 	0.11840 0.81540 0.61300 0.00100
C 	C 	0.18570 0.51430 0.72170 0.00400
C 	C 	0.21200 0.58700 0.43700 -0.01000
C 	C 	0.09930 0.65180 0.45780 0.10800
C 	C 	0.16710 0.59370 0.37400 -0.00900
C 	C 	0.09200 0.73580 0.70220 0.10600
C 	C 	0.07430 0.85980 0.66410 -0.01100
C 	C 	0.13630 0.45070 0.74610 -0.01600
C 	C 	0.09780 0.48530 0.63960 0.10000
C 	C 	0.35170 0.73480 0.63910 0.08400
C 	C 	0.10910 0.11490 0.59860 -0.01000
C 	C 	0.03670 0.16000 0.61720 -0.00400
C 	C 	0.38160 0.31540 0.61300 0.00100
C 	C 	0.31430 0.01430 0.72170 0.00500
C 	C 	0.28800 0.08700 0.43700 -0.01000
C 	C 	0.40070 0.15180 0.45780 0.10800
C 	C 	0.33290 0.09370 0.37400 -0.00900
C 	C 	0.40800 0.23580 0.70220 0.10600
C 	C 	0.42570 0.35980 0.66410 -0.01100
C 	C 	0.36370 0.95070 0.74610 -0.01900
C 	C 	0.40220 0.98530 0.63960 0.09900
C 	C 	0.14830 0.23480 0.63910 0.08500
C 	C 	0.39090 0.88510 0.09860 -0.00700
C 	C 	0.46330 0.84000 0.11720 -0.01300
C 	C 	0.11840 0.68460 0.11300 0.00100
C 	C 	0.18570 0.98570 0.22170 -0.00400
C 	C 	0.21200 0.91300 0.93700 -0.01000
C 	C 	0.09930 0.84820 0.95780 0.10800
C 	C 	0.16710 0.90630 0.87400 -0.00900
C 	C 	0.09200 0.76420 0.20220 0.10600
C 	C 	0.07430 0.64020 0.16410 -0.01100
C 	C 	0.13630 0.04930 0.24610 -0.00900
C 	C 	0.09780 0.01470 0.13960 0.10400
C 	C 	0.35170 0.76520 0.13910 0.08400
C 	C 	0.89090 0.61490 0.90140 -0.00700
C 	C 	0.96330 0.66000 0.88280 -0.01100
C 	C 	0.61840 0.81540 0.88700 0.00100
C 	C 	0.68570 0.51430 0.77830 0.00400
C 	C 	0.71200 0.58700 0.06300 -0.01000
C 	C 	0.59930 0.65180 0.04220 0.10800
C 	C 	0.66710 0.59370 0.12600 -0.00900
C 	C 	0.59200 0.73580 0.79780 0.10600
C 	C 	0.57430 0.85980 0.83590 -0.01100
C 	C 	0.63630 0.45070 0.75390 -0.01600
C 	C 	0.59780 0.48530 0.86040 0.10000
C 	C 	0.85170 0.73480 0.86090 0.08500
C 	C 	0.60910 0.38510 0.40140 -0.00700
C 	C 	0.53670 0.34000 0.38280 -0.01300
C 	C 	0.88160 0.18460 0.38700 0.00100
C 	C 	0.81430 0.48570 0.27830 0.00400
C 	C 	0.78800 0.41300 0.56300 -0.01000
C 	C 	0.90070 0.34820 0.54220 0.10800
C 	C 	0.83290 0.40630 0.62600 -0.00900
C 	C 	0.90800 0.26420 0.29780 0.10600
C 	C 	0.92570 0.14020 0.33590 -0.01100
C 	C 	0.86370 0.54930 0.25390 -0.01600
C 	C 	0.90220 0.51470 0.36040 0.10000
C 	C 	0.64830 0.26520 0.36090 0.08400
N 	N 	0.81990 0.83730 0.38700 -0.29300
N 	N 	0.63020 0.76380 0.36180 -0.29700
N 	N 	0.66150 0.96200 0.34580 -0.29800
N 	N 	0.66770 0.87620 0.50770 -0.30300
N 	N 	0.59430 0.86480 0.61240 -0.29900
N 	N 	0.55740 0.69210 0.27910 -0.29800
N 	N 	0.58020 0.07010 0.30850 -0.29600
N 	N 	0.93630 0.76360 0.35490 -0.29200
N 	N 	0.68010 0.16270 0.88700 -0.29400
N 	N 	0.86980 0.23620 0.86180 -0.29800
N 	N 	0.83850 0.03800 0.84580 -0.30000
N 	N 	0.83230 0.12380 0.00770 -0.30300
N 	N 	0.90570 0.13520 0.11240 -0.29900
N 	N 	0.94260 0.30790 0.77910 -0.29800
N 	N 	0.91980 0.92990 0.80850 -0.29700
N 	N 	0.56370 0.23640 0.85490 -0.29200
N 	N 	0.18010 0.33730 0.11300 -0.29300
N 	N 	0.36980 0.26380 0.13820 -0.29700
N 	N 	0.33850 0.46200 0.15420 -0.29900
N 	N 	0.33230 0.37620 0.99230 -0.30400
N 	N 	0.40570 0.36480 0.88760 -0.29900
N 	N 	0.44260 0.19210 0.22090 -0.29800
N 	N 	0.41980 0.57010 0.19150 -0.29600
N 	N 	0.06370 0.26360 0.14510 -0.29100
N 	N 	0.31990 0.66270 0.61300 -0.29300
N 	N 	0.13020 0.73620 0.63820 -0.29700
N 	N 	0.16150 0.53800 0.65420 -0.29900
N 	N 	0.16770 0.62380 0.49230 -0.30300
N 	N 	0.09430 0.63520 0.38760 -0.29900
N 	N 	0.05740 0.80790 0.72090 -0.29800
N 	N 	0.08020 0.42990 0.69150 -0.29500
N 	N 	0.43630 0.73640 0.64510 -0.29200
N 	N 	0.18010 0.16270 0.61300 -0.29300
N 	N 	0.36980 0.23620 0.63820 -0.29700
N 	N 	0.33850 0.03800 0.65420 -0.29800
N 	N 	0.33230 0.12380 0.49230 -0.30300
N 	N 	0.40570 0.13520 0.38760 -0.29900
N 	N 	0.44260 0.30790 0.72090 -0.29800
N 	N 	0.41980 0.92990 0.69150 -0.29600
N 	N 	0.06370 0.23640 0.64510 -0.29200
N 	N 	0.31990 0.83730 0.11300 -0.29400
N 	N 	0.13020 0.76380 0.13820 -0.29800
N 	N 	0.16150 0.96200 0.15420 -0.30000
N 	N 	0.16770 0.87620 0.99230 -0.30300
N 	N 	0.09430 0.86480 0.88760 -0.29900
N 	N 	0.05740 0.69210 0.22090 -0.29800
N 	N 	0.08020 0.07010 0.19150 -0.29700
N 	N 	0.43630 0.76360 0.14510 -0.29200
N 	N 	0.81990 0.66270 0.88700 -0.29300
N 	N 	0.63020 0.73620 0.86180 -0.29700
N 	N 	0.66150 0.53800 0.84580 -0.29900
N 	N 	0.66770 0.62380 0.00770 -0.30400
N 	N 	0.59430 0.63520 0.11240 -0.29900
N 	N 	0.55740 0.80790 0.77910 -0.29800
N 	N 	0.58020 0.42990 0.80850 -0.29600
N 	N 	0.93630 0.73640 0.85490 -0.29100
N 	N 	0.68010 0.33730 0.38700 -0.29300
N 	N 	0.86980 0.26380 0.36180 -0.29700
N 	N 	0.83850 0.46200 0.34580 -0.29900
N 	N 	0.83230 0.37620 0.50770 -0.30300
N 	N 	0.90570 0.36480 0.61240 -0.29900
N 	N 	0.94260 0.19210 0.27910 -0.29800
N 	N 	0.91980 0.57010 0.30850 -0.29500
N 	N 	0.56370 0.26360 0.35490 -0.29200
