data_crystal

_cell_length_a 9.89950
_cell_length_b 9.89950
_cell_length_c 15.41910
_cell_angle_alpha 74.56360
_cell_angle_beta  74.56360
_cell_angle_gamma 82.56850

_symmetry_space_group_name_	'P 1'
_symmetry_space_group_name_H-M	'P 1'

loop_
_symmetry_equiv_pos_as_xyz
  x,y,z

loop_
_atom_site_label
_atom_site_type_symbol
_atom_site_fract_x
_atom_site_fract_y
_atom_site_fract_z
_atom_site_charge
Al	Al	0.93025 0.31515 0.12409 2.38800
Al	Al	0.63132 0.88302 0.07967 2.39300
Al	Al	0.02556 0.80676 0.16377 2.38200
Al	Al	0.68485 0.06975 0.37591 2.38900
Al	Al	0.11698 0.36868 0.42033 2.39400
Al	Al	0.19324 0.97444 0.33623 2.38100
Al	Al	0.06975 0.68485 0.87591 2.38800
Al	Al	0.36868 0.11698 0.92033 2.39300
Al	Al	0.97444 0.19324 0.83623 2.38200
Al	Al	0.31515 0.93025 0.62409 2.38900
Al	Al	0.88302 0.63132 0.57967 2.39400
Al	Al	0.80676 0.02556 0.66377 2.38100
P 	P 	0.86960 0.64102 0.07551 0.78800
P 	P 	0.31682 0.93492 0.12656 0.77500
P 	P 	0.77725 0.04521 0.17098 0.77700
P 	P 	0.35898 0.13040 0.42449 0.79600
P 	P 	0.06508 0.68318 0.37344 0.78600
P 	P 	0.95479 0.22275 0.32902 0.76100
P 	P 	0.13040 0.35898 0.92449 0.78800
P 	P 	0.68318 0.06508 0.87344 0.77500
P 	P 	0.22275 0.95479 0.82902 0.77700
P 	P 	0.64102 0.86960 0.57551 0.79600
P 	P 	0.93492 0.31682 0.62656 0.78600
P 	P 	0.04521 0.77725 0.67098 0.76100
O 	O 	0.21470 0.83910 0.12010 -0.78900
O 	O 	0.84030 0.48610 0.10880 -0.75200
O 	O 	0.67020 0.01400 0.12630 -0.78200
O 	O 	0.26370 0.99930 0.20790 -0.78400
O 	O 	0.79500 0.20260 0.13960 -0.80800
O 	O 	0.98180 0.66900 0.11620 -0.80900
O 	O 	0.72760 0.99840 0.27550 -0.79300
O 	O 	0.45430 0.84650 0.13040 -0.77300
O 	O 	0.34550 0.05830 0.04210 -0.78500
O 	O 	0.91550 0.96730 0.14050 -0.86300
O 	O 	0.73240 0.72380 0.10630 -0.78800
O 	O 	0.91510 0.68170 0.97060 -0.79000
O 	O 	0.16090 0.78530 0.37990 -0.78900
O 	O 	0.51390 0.15970 0.39120 -0.75000
O 	O 	0.98600 0.32980 0.37370 -0.78700
O 	O 	0.00070 0.73630 0.29210 -0.78000
O 	O 	0.79740 0.20500 0.36040 -0.80600
O 	O 	0.33100 0.01820 0.38380 -0.80400
O 	O 	0.00160 0.27240 0.22450 -0.78000
O 	O 	0.15350 0.54570 0.36960 -0.76900
O 	O 	0.94170 0.65450 0.45790 -0.79700
O 	O 	0.03270 0.08450 0.35950 -0.84800
O 	O 	0.27620 0.26760 0.39370 -0.78400
O 	O 	0.31830 0.08490 0.52940 -0.80000
O 	O 	0.78530 0.16090 0.87990 -0.78900
O 	O 	0.15970 0.51390 0.89120 -0.75200
O 	O 	0.32980 0.98600 0.87370 -0.78200
O 	O 	0.73630 0.00070 0.79210 -0.78400
O 	O 	0.20500 0.79740 0.86040 -0.80800
O 	O 	0.01820 0.33100 0.88380 -0.80900
O 	O 	0.27240 0.00160 0.72450 -0.79300
O 	O 	0.54570 0.15350 0.86960 -0.77300
O 	O 	0.65450 0.94170 0.95790 -0.78500
O 	O 	0.08450 0.03270 0.85950 -0.86300
O 	O 	0.26760 0.27620 0.89370 -0.78800
O 	O 	0.08490 0.31830 0.02940 -0.79000
O 	O 	0.83910 0.21470 0.62010 -0.78900
O 	O 	0.48610 0.84030 0.60880 -0.75000
O 	O 	0.01400 0.67020 0.62630 -0.78700
O 	O 	0.99930 0.26370 0.70790 -0.78000
O 	O 	0.20260 0.79500 0.63960 -0.80600
O 	O 	0.66900 0.98180 0.61620 -0.80400
O 	O 	0.99840 0.72760 0.77550 -0.78000
O 	O 	0.84650 0.45430 0.63040 -0.76900
O 	O 	0.05830 0.34550 0.54210 -0.79700
O 	O 	0.96730 0.91550 0.64050 -0.84800
O 	O 	0.72380 0.73240 0.60630 -0.78400
O 	O 	0.68170 0.91510 0.47060 -0.80000
