data_crystal

_cell_length_a 13.94400
_cell_length_b 14.10200
_cell_length_c 14.10200
_cell_angle_alpha 86.91980
_cell_angle_beta  70.63300
_cell_angle_gamma 70.63300

_symmetry_space_group_name_	'P 1'
_symmetry_space_group_name_H-M	'P 1'

loop_
_symmetry_equiv_pos_as_xyz
  x,y,z

loop_
_atom_site_label
_atom_site_type_symbol
_atom_site_fract_x
_atom_site_fract_y
_atom_site_fract_z
_atom_site_charge
Zn	Zn	0.86750 0.13349 0.82415 1.21800
Zn	Zn	0.63250 0.17585 0.86651 1.21900
Zn	Zn	0.13250 0.86651 0.17585 1.21800
Zn	Zn	0.36750 0.82415 0.13349 1.21900
H 	H 	0.55870 0.69340 0.90000 0.07400
H 	H 	0.52550 0.52980 0.90160 0.03800
H 	H 	0.97030 0.77660 0.81120 0.03200
H 	H 	0.93210 0.61420 0.82460 0.06200
H 	H 	0.20840 0.21690 0.71230 0.06800
H 	H 	0.05020 0.20440 0.69900 0.01000
H 	H 	0.00040 0.06430 0.96050 0.01300
H 	H 	0.15860 0.07680 0.97400 0.07600
H 	H 	0.94130 0.10000 0.30660 0.07200
H 	H 	0.97450 0.09840 0.47020 0.03600
H 	H 	0.52970 0.18880 0.22340 0.03200
H 	H 	0.56790 0.17540 0.38580 0.06200
H 	H 	0.29160 0.28770 0.78310 0.06800
H 	H 	0.44980 0.30100 0.79560 0.01000
H 	H 	0.49960 0.03950 0.93570 0.01200
H 	H 	0.34140 0.02600 0.92320 0.07600
H 	H 	0.44130 0.30660 0.10000 0.07300
H 	H 	0.47450 0.47020 0.09840 0.03700
H 	H 	0.02970 0.22340 0.18880 0.03200
H 	H 	0.06790 0.38580 0.17540 0.06200
H 	H 	0.79160 0.78310 0.28770 0.06800
H 	H 	0.94980 0.79560 0.30100 0.01000
H 	H 	0.99960 0.93570 0.03950 0.01300
H 	H 	0.84140 0.92320 0.02600 0.07600
H 	H 	0.05870 0.90000 0.69340 0.07200
H 	H 	0.02550 0.90160 0.52980 0.03600
H 	H 	0.47030 0.81120 0.77660 0.03200
H 	H 	0.43210 0.82460 0.61420 0.06200
H 	H 	0.70840 0.71230 0.21690 0.06800
H 	H 	0.55020 0.69900 0.20440 0.01000
H 	H 	0.50040 0.96050 0.06430 0.01200
H 	H 	0.65860 0.97400 0.07680 0.07600
C 	C 	0.79850 0.96240 0.84000 0.40200
C 	C 	0.70190 0.34550 0.85050 0.41000
C 	C 	0.68690 0.45620 0.85580 -0.10800
C 	C 	0.72210 0.61630 0.85150 0.01100
C 	C 	0.81100 0.85220 0.83620 -0.11000
C 	C 	0.61410 0.62960 0.88200 -0.08700
C 	C 	0.59530 0.53550 0.88330 0.03500
C 	C 	0.77320 0.69340 0.84080 0.00600
C 	C 	0.90090 0.77200 0.82300 0.02800
C 	C 	0.87940 0.67850 0.82870 -0.07900
C 	C 	0.16620 0.18590 0.76270 -0.10600
C 	C 	0.07220 0.17847 0.75473 0.05300
C 	C 	0.04260 0.09525 0.91015 0.05600
C 	C 	0.13660 0.10270 0.91810 -0.10600
C 	C 	0.19840 0.14800 0.84440 0.04800
C 	C 	0.70150 0.16000 0.03760 0.40000
C 	C 	0.79810 0.14950 0.65450 0.41000
C 	C 	0.81310 0.14420 0.54380 -0.10800
C 	C 	0.77790 0.14850 0.38370 0.01100
C 	C 	0.68900 0.16380 0.14780 -0.11000
C 	C 	0.88590 0.11800 0.37040 -0.08700
C 	C 	0.90470 0.11670 0.46450 0.03500
C 	C 	0.72680 0.15920 0.30660 0.00700
C 	C 	0.59910 0.17700 0.22800 0.02800
C 	C 	0.62060 0.17130 0.32150 -0.08000
C 	C 	0.33380 0.23730 0.81410 -0.10700
C 	C 	0.42780 0.24527 0.82153 0.05300
C 	C 	0.45740 0.08985 0.90475 0.05600
C 	C 	0.36340 0.08190 0.89730 -0.10700
C 	C 	0.30160 0.15560 0.85200 0.04800
C 	C 	0.20150 0.03760 0.16000 0.40200
C 	C 	0.29810 0.65450 0.14950 0.41000
C 	C 	0.31310 0.54380 0.14420 -0.10800
C 	C 	0.27790 0.38370 0.14850 0.01100
C 	C 	0.18900 0.14780 0.16380 -0.11000
C 	C 	0.38590 0.37040 0.11800 -0.08700
C 	C 	0.40470 0.46450 0.11670 0.03500
C 	C 	0.22680 0.30660 0.15920 0.00600
C 	C 	0.09910 0.22800 0.17700 0.02800
C 	C 	0.12060 0.32150 0.17130 -0.07900
C 	C 	0.83380 0.81410 0.23730 -0.10600
C 	C 	0.92780 0.82153 0.24527 0.05300
C 	C 	0.95740 0.90475 0.08985 0.05600
C 	C 	0.86340 0.89730 0.08190 -0.10600
C 	C 	0.80160 0.85200 0.15560 0.04800
C 	C 	0.29850 0.84000 0.96240 0.40000
C 	C 	0.20190 0.85050 0.34550 0.41000
C 	C 	0.18690 0.85580 0.45620 -0.10800
C 	C 	0.22210 0.85150 0.61630 0.01100
C 	C 	0.31100 0.83620 0.85220 -0.11000
C 	C 	0.11410 0.88200 0.62960 -0.08700
C 	C 	0.09530 0.88330 0.53550 0.03500
C 	C 	0.27320 0.84080 0.69340 0.00700
C 	C 	0.40090 0.82300 0.77200 0.02800
C 	C 	0.37940 0.82870 0.67850 -0.08000
C 	C 	0.66620 0.76270 0.18590 -0.10700
C 	C 	0.57220 0.75473 0.17847 0.05300
C 	C 	0.54260 0.91015 0.09525 0.05600
C 	C 	0.63660 0.91810 0.10270 -0.10700
C 	C 	0.69840 0.84440 0.14800 0.04800
S 	S 	0.69998 0.81865 0.85075 0.03700
S 	S 	0.80043 0.49133 0.82489 0.03400
S 	S 	0.80002 0.14925 0.18135 0.03500
S 	S 	0.69957 0.17511 0.50867 0.03500
S 	S 	0.30002 0.18135 0.14925 0.03700
S 	S 	0.19957 0.50867 0.17511 0.03400
S 	S 	0.19998 0.85075 0.81865 0.03500
S 	S 	0.30043 0.82489 0.49133 0.03500
N 	N 	0.01040 0.13314 0.82846 -0.24000
N 	N 	0.48960 0.17154 0.86686 -0.24100
N 	N 	0.98960 0.86686 0.17154 -0.24000
N 	N 	0.51040 0.82846 0.13314 -0.24100
O 	O 	0.88040 0.98547 0.82929 -0.46100
O 	O 	0.61810 0.32352 0.87468 -0.46100
O 	O 	0.70620 0.02268 0.85232 -0.47600
O 	O 	0.79610 0.28730 0.82530 -0.47100
O 	O 	0.61960 0.17071 0.01453 -0.46200
O 	O 	0.88190 0.12532 0.67648 -0.46200
O 	O 	0.79380 0.14768 0.97732 -0.47600
O 	O 	0.70390 0.17470 0.71270 -0.47000
O 	O 	0.11960 0.01453 0.17071 -0.46100
O 	O 	0.38190 0.67648 0.12532 -0.46100
O 	O 	0.29380 0.97732 0.14768 -0.47600
O 	O 	0.20390 0.71270 0.17470 -0.47100
O 	O 	0.38040 0.82929 0.98547 -0.46200
O 	O 	0.11810 0.87468 0.32352 -0.46200
O 	O 	0.20620 0.85232 0.02268 -0.47600
O 	O 	0.29610 0.82530 0.28730 -0.47000
