data_crystal

_cell_length_a 9.37600
_cell_length_b 14.01570
_cell_length_c 14.01570
_cell_angle_alpha 101.73000
_cell_angle_beta  101.45100
_cell_angle_gamma 101.45100

_symmetry_space_group_name_	'P 1'
_symmetry_space_group_name_H-M	'P 1'

loop_
_symmetry_equiv_pos_as_xyz
  x,y,z

loop_
_atom_site_label
_atom_site_type_symbol
_atom_site_fract_x
_atom_site_fract_y
_atom_site_fract_z
_atom_site_charge
Zn	Zn	0.91154 0.82458 0.27566 1.21500
Zn	Zn	0.58846 0.72434 0.17542 1.21500
Zn	Zn	0.08846 0.17542 0.72434 1.21500
Zn	Zn	0.41154 0.27566 0.82458 1.21500
H 	H 	0.08400 0.90290 0.48890 0.00200
H 	H 	0.32620 0.97190 0.58410 0.08500
H 	H 	0.45740 0.97610 0.33270 0.08300
H 	H 	0.21120 0.90930 0.24370 -0.00100
H 	H 	0.06230 0.51900 0.26720 0.03500
H 	H 	0.01690 0.33750 0.25150 0.06600
H 	H 	0.47340 0.00760 0.08400 0.03100
H 	H 	0.53490 0.18240 0.07140 0.07100
H 	H 	0.41600 0.51110 0.09710 0.00200
H 	H 	0.17380 0.41590 0.02810 0.08600
H 	H 	0.04260 0.66730 0.02390 0.08400
H 	H 	0.28880 0.75630 0.09070 -0.00100
H 	H 	0.43770 0.73280 0.48100 0.03400
H 	H 	0.48310 0.74850 0.66250 0.06700
H 	H 	0.02660 0.91600 0.99240 0.03200
H 	H 	0.96510 0.92860 0.81760 0.07100
H 	H 	0.91600 0.09710 0.51110 0.00300
H 	H 	0.67380 0.02810 0.41590 0.08600
H 	H 	0.54260 0.02390 0.66730 0.08400
H 	H 	0.78880 0.09070 0.75630 -0.00000
H 	H 	0.93770 0.48100 0.73280 0.03500
H 	H 	0.98310 0.66250 0.74850 0.06600
H 	H 	0.52660 0.99240 0.91600 0.03100
H 	H 	0.46510 0.81760 0.92860 0.07100
H 	H 	0.58400 0.48890 0.90290 0.00200
H 	H 	0.82620 0.58410 0.97190 0.08600
H 	H 	0.95740 0.33270 0.97610 0.08400
H 	H 	0.71120 0.24370 0.90930 -0.00100
H 	H 	0.56230 0.26720 0.51900 0.03400
H 	H 	0.51690 0.25150 0.33750 0.06700
H 	H 	0.97340 0.08400 0.00760 0.03200
H 	H 	0.03490 0.07140 0.18240 0.07100
C 	C 	0.16100 0.91590 0.45590 0.09000
C 	C 	0.30700 0.95758 0.51362 -0.13600
C 	C 	0.42200 0.97784 0.47056 0.06600
C 	C 	0.38300 0.96030 0.36710 -0.13100
C 	C 	0.23490 0.91940 0.31400 0.08900
C 	C 	0.81240 0.60453 0.22069 0.40000
C 	C 	0.83630 0.50373 0.22011 -0.11000
C 	C 	0.96620 0.47447 0.24573 0.03200
C 	C 	0.93970 0.37002 0.23658 -0.08400
C 	C 	0.79160 0.32071 0.20401 0.00600
C 	C 	0.72070 0.21437 0.18649 0.01100
C 	C 	0.66320 0.03731 0.19619 -0.11900
C 	C 	0.55930 0.05647 0.12483 0.03500
C 	C 	0.59380 0.15751 0.11829 -0.09300
C 	C 	0.67890 0.93958 0.21336 0.38900
C 	C 	0.33900 0.54410 0.08410 0.09000
C 	C 	0.19300 0.48638 0.04242 -0.13600
C 	C 	0.07800 0.52944 0.02216 0.06600
C 	C 	0.11700 0.63290 0.03970 -0.13200
C 	C 	0.26510 0.68600 0.08060 0.08900
C 	C 	0.68760 0.77931 0.39547 0.40000
C 	C 	0.66370 0.77989 0.49627 -0.11000
C 	C 	0.53380 0.75427 0.52553 0.03300
C 	C 	0.56030 0.76342 0.62998 -0.08500
C 	C 	0.70840 0.79599 0.67929 0.00700
C 	C 	0.77930 0.81351 0.78563 0.01100
C 	C 	0.83680 0.80381 0.96269 -0.11800
C 	C 	0.94070 0.87517 0.94353 0.03300
C 	C 	0.90620 0.88171 0.84249 -0.09200
C 	C 	0.82110 0.78664 0.06042 0.38900
C 	C 	0.83900 0.08410 0.54410 0.09000
C 	C 	0.69300 0.04242 0.48638 -0.13600
C 	C 	0.57800 0.02216 0.52944 0.06600
C 	C 	0.61700 0.03970 0.63290 -0.13100
C 	C 	0.76510 0.08060 0.68600 0.08900
C 	C 	0.18760 0.39547 0.77931 0.40000
C 	C 	0.16370 0.49627 0.77989 -0.11000
C 	C 	0.03380 0.52553 0.75427 0.03200
C 	C 	0.06030 0.62998 0.76342 -0.08400
C 	C 	0.20840 0.67929 0.79599 0.00600
C 	C 	0.27930 0.78563 0.81351 0.01100
C 	C 	0.33680 0.96269 0.80381 -0.11900
C 	C 	0.44070 0.94353 0.87517 0.03500
C 	C 	0.40620 0.84249 0.88171 -0.09300
C 	C 	0.32110 0.06042 0.78664 0.38900
C 	C 	0.66100 0.45590 0.91590 0.09000
C 	C 	0.80700 0.51362 0.95758 -0.13600
C 	C 	0.92200 0.47056 0.97784 0.06600
C 	C 	0.88300 0.36710 0.96030 -0.13200
C 	C 	0.73490 0.31400 0.91940 0.08900
C 	C 	0.31240 0.22069 0.60453 0.40000
C 	C 	0.33630 0.22011 0.50373 -0.11000
C 	C 	0.46620 0.24573 0.47447 0.03300
C 	C 	0.43970 0.23658 0.37002 -0.08500
C 	C 	0.29160 0.20401 0.32071 0.00700
C 	C 	0.22070 0.18649 0.21437 0.01100
C 	C 	0.16320 0.19619 0.03731 -0.11800
C 	C 	0.05930 0.12483 0.05647 0.03300
C 	C 	0.09380 0.11829 0.15751 -0.09200
C 	C 	0.17890 0.21336 0.93958 0.38900
S 	S 	0.68155 0.40324 0.18344 0.03800
S 	S 	0.80099 0.14475 0.25913 0.02800
S 	S 	0.81845 0.81656 0.59676 0.03700
S 	S 	0.69901 0.74087 0.85525 0.02700
S 	S 	0.31845 0.59676 0.81656 0.03800
S 	S 	0.19901 0.85525 0.74087 0.02800
S 	S 	0.18155 0.18344 0.40324 0.03700
S 	S 	0.30099 0.25913 0.14475 0.02700
N 	N 	0.12530 0.89371 0.35701 -0.25700
N 	N 	0.37470 0.64299 0.10629 -0.25800
N 	N 	0.87470 0.10629 0.64299 -0.25700
N 	N 	0.62530 0.35701 0.89371 -0.25800
O 	O 	0.92520 0.67763 0.24503 -0.45300
O 	O 	0.82240 0.80132 0.39156 -0.46700
O 	O 	0.79980 0.93821 0.26895 -0.46500
O 	O 	0.56940 0.86483 0.16935 -0.45700
O 	O 	0.57480 0.75497 0.32237 -0.45300
O 	O 	0.67760 0.60844 0.19868 -0.46700
O 	O 	0.70020 0.73105 0.06179 -0.46500
O 	O 	0.93060 0.83065 0.13517 -0.45700
O 	O 	0.07480 0.32237 0.75497 -0.45300
O 	O 	0.17760 0.19868 0.60844 -0.46700
O 	O 	0.20020 0.06179 0.73105 -0.46500
O 	O 	0.43060 0.13517 0.83065 -0.45700
O 	O 	0.42520 0.24503 0.67763 -0.45300
O 	O 	0.32240 0.39156 0.80132 -0.46700
O 	O 	0.29980 0.26895 0.93821 -0.46500
O 	O 	0.06940 0.16935 0.86483 -0.45700
