data_crystal

_cell_length_a 14.00300
_cell_length_b 14.10460
_cell_length_c 14.10460
_cell_angle_alpha 103.26300
_cell_angle_beta  105.66200
_cell_angle_gamma 105.66200

_symmetry_space_group_name_	'P 1'
_symmetry_space_group_name_H-M	'P 1'

loop_
_symmetry_equiv_pos_as_xyz
  x,y,z

loop_
_atom_site_label
_atom_site_type_symbol
_atom_site_fract_x
_atom_site_fract_y
_atom_site_fract_z
_atom_site_charge
Zn	Zn	0.36370 0.66363 0.37553 1.21400
Zn	Zn	0.13630 0.62447 0.33637 1.21400
Zn	Zn	0.63630 0.33637 0.62447 1.21300
Zn	Zn	0.86370 0.37553 0.66363 1.21300
H 	H 	0.65000 0.52400 0.41100 0.08400
H 	H 	0.48590 0.02740 0.41180 0.05700
H 	H 	0.48430 0.53150 0.40470 0.00500
H 	H 	0.46970 0.70390 0.73790 0.04900
H 	H 	0.42190 0.69620 0.89580 0.06000
H 	H 	0.68860 0.76970 0.30430 0.07700
H 	H 	0.42040 0.17710 0.38570 0.06500
H 	H 	0.55950 0.79570 0.36670 0.00000
H 	H 	0.85000 0.58900 0.47600 0.08400
H 	H 	0.01410 0.58820 0.97260 0.05700
H 	H 	0.01570 0.59530 0.46850 0.00400
H 	H 	0.03030 0.26210 0.29610 0.04900
H 	H 	0.07810 0.10420 0.30380 0.06000
H 	H 	0.81140 0.69570 0.23030 0.07700
H 	H 	0.07960 0.61430 0.82290 0.06500
H 	H 	0.94050 0.63330 0.20430 0.00000
H 	H 	0.35000 0.47600 0.58900 0.08400
H 	H 	0.51410 0.97260 0.58820 0.05700
H 	H 	0.51570 0.46850 0.59530 0.00500
H 	H 	0.53030 0.29610 0.26210 0.04900
H 	H 	0.57810 0.30380 0.10420 0.06000
H 	H 	0.31140 0.23030 0.69570 0.07700
H 	H 	0.57960 0.82290 0.61430 0.06500
H 	H 	0.44050 0.20430 0.63330 0.00000
H 	H 	0.15000 0.41100 0.52400 0.08400
H 	H 	0.98590 0.41180 0.02740 0.05700
H 	H 	0.98430 0.40470 0.53150 0.00400
H 	H 	0.96970 0.73790 0.70390 0.04900
H 	H 	0.92190 0.89580 0.69620 0.06000
H 	H 	0.18860 0.30430 0.76970 0.07700
H 	H 	0.92040 0.38570 0.17710 0.06500
H 	H 	0.05950 0.36670 0.79570 0.00000
C 	C 	0.31350 0.68320 0.66600 -0.04400
C 	C 	0.30190 0.83740 0.38320 0.30600
C 	C 	0.70040 0.64330 0.35590 0.04600
C 	C 	0.28930 0.67110 0.54610 0.27700
C 	C 	0.27160 0.09880 0.34720 0.00700
C 	C 	0.31130 0.94440 0.37340 -0.05500
C 	C 	0.26810 0.66340 0.82120 0.00500
C 	C 	0.63000 0.57530 0.38910 -0.12100
C 	C 	0.41710 0.02800 0.39400 -0.01400
C 	C 	0.52980 0.58290 0.39010 0.09000
C 	C 	0.40260 0.69380 0.74200 -0.01500
C 	C 	0.37150 0.68590 0.83230 -0.06500
C 	C 	0.65690 0.72410 0.33450 -0.12100
C 	C 	0.37280 0.11220 0.37580 -0.06600
C 	C 	0.57010 0.73240 0.35880 0.08500
C 	C 	0.18650 0.33400 0.31680 -0.04400
C 	C 	0.19810 0.61680 0.16260 0.30600
C 	C 	0.79960 0.64410 0.35670 0.04600
C 	C 	0.21070 0.45390 0.32890 0.27700
C 	C 	0.22840 0.65280 0.90120 0.00700
C 	C 	0.18870 0.62660 0.05560 -0.05500
C 	C 	0.23190 0.17880 0.33660 0.00500
C 	C 	0.87000 0.61090 0.42470 -0.12100
C 	C 	0.08290 0.60600 0.97200 -0.01400
C 	C 	0.97020 0.60990 0.41710 0.09000
C 	C 	0.09740 0.25800 0.30620 -0.01500
C 	C 	0.12850 0.16770 0.31410 -0.06500
C 	C 	0.84310 0.66550 0.27590 -0.12100
C 	C 	0.12720 0.62420 0.88780 -0.06600
C 	C 	0.92990 0.64120 0.26760 0.08500
C 	C 	0.68650 0.31680 0.33400 -0.04400
C 	C 	0.69810 0.16260 0.61680 0.30600
C 	C 	0.29960 0.35670 0.64410 0.04600
C 	C 	0.71070 0.32890 0.45390 0.27700
C 	C 	0.72840 0.90120 0.65280 0.00700
C 	C 	0.68870 0.05560 0.62660 -0.05500
C 	C 	0.73190 0.33660 0.17880 0.00500
C 	C 	0.37000 0.42470 0.61090 -0.12100
C 	C 	0.58290 0.97200 0.60600 -0.01400
C 	C 	0.47020 0.41710 0.60990 0.09000
C 	C 	0.59740 0.30620 0.25800 -0.01500
C 	C 	0.62850 0.31410 0.16770 -0.06500
C 	C 	0.34310 0.27590 0.66550 -0.12100
C 	C 	0.62720 0.88780 0.62420 -0.06600
C 	C 	0.42990 0.26760 0.64120 0.08500
C 	C 	0.81350 0.66600 0.68320 -0.04400
C 	C 	0.80190 0.38320 0.83740 0.30600
C 	C 	0.20040 0.35590 0.64330 0.04600
C 	C 	0.78930 0.54610 0.67110 0.27700
C 	C 	0.77160 0.34720 0.09880 0.00700
C 	C 	0.81130 0.37340 0.94440 -0.05500
C 	C 	0.76810 0.82120 0.66340 0.00500
C 	C 	0.13000 0.38910 0.57530 -0.12100
C 	C 	0.91710 0.39400 0.02800 -0.01400
C 	C 	0.02980 0.39010 0.58290 0.09000
C 	C 	0.90260 0.74200 0.69380 -0.01500
C 	C 	0.87150 0.83230 0.68590 -0.06500
C 	C 	0.15690 0.33450 0.72410 -0.12100
C 	C 	0.87280 0.37580 0.11220 -0.06600
C 	C 	0.07010 0.35880 0.73240 0.08500
S 	S 	0.20250 0.97903 0.34297 0.02900
S 	S 	0.20380 0.65858 0.70020 0.02100
S 	S 	0.29750 0.65703 0.02097 0.02900
S 	S 	0.29620 0.29980 0.34142 0.02100
S 	S 	0.79750 0.02097 0.65703 0.02900
S 	S 	0.79620 0.34142 0.29980 0.02100
S 	S 	0.70250 0.34297 0.97903 0.02900
S 	S 	0.70380 0.70020 0.65858 0.02100
N 	N 	0.50080 0.65680 0.37160 -0.26500
N 	N 	0.99920 0.62840 0.34320 -0.26500
N 	N 	0.49920 0.34320 0.62840 -0.26500
N 	N 	0.00080 0.37160 0.65680 -0.26500
O 	O 	0.38500 0.81590 0.39690 -0.43100
O 	O 	0.38210 0.68480 0.52880 -0.40800
O 	O 	0.20020 0.77770 0.35930 -0.43000
O 	O 	0.19350 0.64820 0.48960 -0.44100
O 	O 	0.11500 0.60310 0.18410 -0.43100
O 	O 	0.11790 0.47120 0.31520 -0.40800
O 	O 	0.29980 0.64070 0.22230 -0.43000
O 	O 	0.30650 0.51040 0.35180 -0.44100
O 	O 	0.61500 0.18410 0.60310 -0.43100
O 	O 	0.61790 0.31520 0.47120 -0.40800
O 	O 	0.79980 0.22230 0.64070 -0.43000
O 	O 	0.80650 0.35180 0.51040 -0.44100
O 	O 	0.88500 0.39690 0.81590 -0.43100
O 	O 	0.88210 0.52880 0.68480 -0.40800
O 	O 	0.70020 0.35930 0.77770 -0.43000
O 	O 	0.69350 0.48960 0.64820 -0.44100
