data_crystal

_cell_length_a 6.60180
_cell_length_b 13.89110
_cell_length_c 15.95400
_cell_angle_alpha 90.00000
_cell_angle_beta  90.00000
_cell_angle_gamma 91.69900

_symmetry_space_group_name_	'P 1'
_symmetry_space_group_name_H-M	'P 1'

loop_
_symmetry_equiv_pos_as_xyz
  x,y,z

loop_
_atom_site_label
_atom_site_type_symbol
_atom_site_fract_x
_atom_site_fract_y
_atom_site_fract_z
_atom_site_charge
Al	Al	-0.00000 0.00000 -0.00000 2.35600
Al	Al	0.50000 0.50000 0.50000 2.40500
Al	Al	0.50000 0.00000 -0.00000 2.36000
Al	Al	0.00000 0.50000 0.50000 2.39100
H 	H 	0.23813 0.88517 0.98040 0.47300
H 	H 	0.56779 0.29523 0.69077 0.05200
H 	H 	0.56265 0.19253 0.80503 0.06400
H 	H 	0.96248 0.29519 0.69190 0.19500
H 	H 	0.95703 0.19248 0.80616 0.20600
H 	H 	0.26187 0.61483 0.48040 0.52900
H 	H 	0.93221 0.20477 0.19077 0.16800
H 	H 	0.93735 0.30747 0.30503 0.20000
H 	H 	0.53752 0.20481 0.19190 0.01900
H 	H 	0.54297 0.30752 0.30616 0.05300
H 	H 	0.76187 0.11483 0.01960 0.58400
H 	H 	0.43221 0.70477 0.30923 0.03700
H 	H 	0.43735 0.80747 0.19497 0.03000
H 	H 	0.03752 0.70481 0.30810 -0.11100
H 	H 	0.04297 0.80752 0.19384 -0.11600
H 	H 	0.73813 0.38517 0.51960 0.53800
H 	H 	0.06779 0.79523 0.80923 -0.06700
H 	H 	0.06265 0.69253 0.69497 -0.10700
H 	H 	0.46248 0.79519 0.80810 0.07100
H 	H 	0.45703 0.69248 0.69384 0.03700
C 	C 	0.26930 0.37623 0.61000 0.48700
C 	C 	0.26582 0.30695 0.68157 -0.07800
C 	C 	0.44494 0.27512 0.71437 -0.01100
C 	C 	0.25613 0.11969 0.89287 0.49100
C 	C 	0.25931 0.18206 0.81668 -0.07200
C 	C 	0.44192 0.21318 0.78237 -0.02300
C 	C 	0.08321 0.27511 0.71506 -0.18200
C 	C 	0.07988 0.21317 0.78306 -0.19000
C 	C 	0.23070 0.12377 0.11000 0.48100
C 	C 	0.23418 0.19305 0.18157 -0.13500
C 	C 	0.05506 0.22488 0.21437 -0.18700
C 	C 	0.24387 0.38031 0.39287 0.50900
C 	C 	0.24069 0.31794 0.31668 -0.08300
C 	C 	0.05808 0.28682 0.28237 -0.22200
C 	C 	0.41679 0.22489 0.21506 -0.01400
C 	C 	0.42012 0.28683 0.28306 -0.04700
C 	C 	0.73070 0.62377 0.39000 0.53200
C 	C 	0.73418 0.69305 0.31843 -0.16000
C 	C 	0.55506 0.72488 0.28563 0.01000
C 	C 	0.74387 0.88031 0.10713 0.58700
C 	C 	0.74069 0.81794 0.18332 -0.18300
C 	C 	0.55808 0.78682 0.21763 0.03100
C 	C 	0.91679 0.72489 0.28494 0.18100
C 	C 	0.92012 0.78683 0.21694 0.20400
C 	C 	0.76930 0.87623 0.89000 0.52600
C 	C 	0.76582 0.80695 0.81843 -0.09200
C 	C 	0.94494 0.77512 0.78563 0.16300
C 	C 	0.75613 0.61969 0.60713 0.58100
C 	C 	0.75931 0.68206 0.68332 -0.18200
C 	C 	0.94192 0.71318 0.71763 0.23500
C 	C 	0.58321 0.77511 0.78494 0.00000
C 	C 	0.57988 0.71317 0.71694 0.06500
O 	O 	0.24358 0.94189 0.99311 -0.97000
O 	O 	0.08563 0.09601 0.92261 -0.68600
O 	O 	0.10121 0.40175 0.58183 -0.68600
O 	O 	0.42422 0.09396 0.92074 -0.63700
O 	O 	0.44025 0.40380 0.58270 -0.64800
O 	O 	0.25642 0.55811 0.49311 -1.33000
O 	O 	0.41437 0.40399 0.42261 -0.67200
O 	O 	0.39879 0.09825 0.08183 -0.80200
O 	O 	0.07578 0.40604 0.42074 -0.75200
O 	O 	0.05975 0.09620 0.08270 -0.88900
O 	O 	0.75642 0.05811 0.00689 -1.60100
O 	O 	0.91437 0.90399 0.07739 -0.61800
O 	O 	0.89879 0.59825 0.41817 -0.55900
O 	O 	0.57578 0.90604 0.07926 -0.69500
O 	O 	0.55975 0.59620 0.41730 -0.65400
O 	O 	0.74358 0.44189 0.50689 -1.27300
O 	O 	0.58563 0.59601 0.57739 -0.66600
O 	O 	0.60121 0.90175 0.91817 -0.43700
O 	O 	0.92422 0.59396 0.57926 -0.60700
O 	O 	0.94025 0.90380 0.91730 -0.40700
