data_crystal

_cell_length_a 11.03850
_cell_length_b 15.17570
_cell_length_c 15.17580
_cell_angle_alpha 114.31900
_cell_angle_beta  104.03200
_cell_angle_gamma 104.03100

_symmetry_space_group_name_	'P 1'
_symmetry_space_group_name_H-M	'P 1'

loop_
_symmetry_equiv_pos_as_xyz
  x,y,z

loop_
_atom_site_label
_atom_site_type_symbol
_atom_site_fract_x
_atom_site_fract_y
_atom_site_fract_z
_atom_site_charge
Fe	Fe	-0.00000 0.50000 -0.00000 1.05000
Fe	Fe	-0.00000 0.00000 0.50000 1.05100
Fe	Fe	0.50000 0.50000 0.50000 1.09800
H 	H 	0.76490 0.53170 0.87620 0.11000
H 	H 	0.76830 0.29170 0.97850 0.25400
H 	H 	0.62040 0.26830 0.97520 0.23600
H 	H 	0.64550 0.20090 0.87610 0.22500
H 	H 	0.56350 0.52920 0.77160 0.24700
H 	H 	0.45800 0.41440 0.69050 0.24100
H 	H 	0.43750 0.48170 0.79210 0.25100
H 	H 	0.26820 0.24130 0.95210 0.25500
H 	H 	0.42190 0.26210 0.97570 0.24100
H 	H 	0.36920 0.35020 0.97970 0.25900
H 	H 	0.28020 0.14480 0.52000 0.22200
H 	H 	0.38820 0.26010 0.59130 0.23100
H 	H 	0.42870 0.16610 0.58480 0.22600
H 	H 	0.13100 0.13940 0.76810 0.08600
H 	H 	0.23510 0.46830 0.12380 0.08700
H 	H 	0.23170 0.70830 0.02150 0.21100
H 	H 	0.37960 0.73170 0.02480 0.20900
H 	H 	0.35450 0.79910 0.12390 0.22100
H 	H 	0.43650 0.47080 0.22840 0.23200
H 	H 	0.54200 0.58560 0.30950 0.23100
H 	H 	0.56250 0.51830 0.20790 0.23000
H 	H 	0.73180 0.75870 0.04790 0.24300
H 	H 	0.57810 0.73790 0.02430 0.21700
H 	H 	0.63080 0.64980 0.02030 0.22300
H 	H 	0.71980 0.85520 0.48000 0.24300
H 	H 	0.61180 0.73990 0.40870 0.24100
H 	H 	0.57130 0.83390 0.41520 0.24600
H 	H 	0.86900 0.86060 0.23190 0.13700
H 	H 	0.88870 0.12380 0.65550 0.09900
H 	H 	0.78980 0.02150 0.31320 0.22400
H 	H 	0.64520 0.02480 0.29310 0.20700
H 	H 	0.76940 0.12390 0.32480 0.21900
H 	H 	0.79190 0.22840 0.75760 0.24100
H 	H 	0.76750 0.30950 0.72390 0.24200
H 	H 	0.64540 0.20790 0.68960 0.23600
H 	H 	0.31610 0.04790 0.28920 0.21900
H 	H 	0.44620 0.02430 0.28640 0.20000
H 	H 	0.38950 0.02030 0.37050 0.21100
H 	H 	0.76020 0.48000 0.62480 0.24600
H 	H 	0.79690 0.40870 0.66880 0.25200
H 	H 	0.84390 0.41520 0.58130 0.25300
H 	H 	0.36290 0.23190 0.37130 0.10800
H 	H 	0.11130 0.87620 0.34450 0.09800
H 	H 	0.21020 0.97850 0.68680 0.24600
H 	H 	0.35480 0.97520 0.70690 0.24200
H 	H 	0.23060 0.87610 0.67520 0.23100
H 	H 	0.20810 0.77160 0.24240 0.24100
H 	H 	0.23250 0.69050 0.27610 0.23200
H 	H 	0.35460 0.79210 0.31040 0.24800
H 	H 	0.68390 0.95210 0.71080 0.27700
H 	H 	0.55380 0.97570 0.71360 0.25800
H 	H 	0.61050 0.97970 0.62950 0.27000
H 	H 	0.23980 0.52000 0.37520 0.21500
H 	H 	0.20310 0.59130 0.33120 0.21800
H 	H 	0.15610 0.58480 0.41870 0.21700
H 	H 	0.63710 0.76810 0.62870 0.11200
H 	H 	0.23320 0.34450 0.46830 0.09900
H 	H 	0.47660 0.68680 0.70830 0.25000
H 	H 	0.35210 0.70690 0.73170 0.24300
H 	H 	0.44460 0.67520 0.79910 0.24800
H 	H 	0.03430 0.24240 0.47080 0.30500
H 	H 	0.04360 0.27610 0.58560 0.30400
H 	H 	0.95580 0.31040 0.51830 0.35300
H 	H 	0.02690 0.71080 0.75870 0.22200
H 	H 	0.15980 0.71360 0.73790 0.21800
H 	H 	0.01900 0.62950 0.64980 0.21100
H 	H 	0.13540 0.37520 0.85520 0.22000
H 	H 	0.12810 0.33120 0.73990 0.21600
H 	H 	0.26260 0.41870 0.83390 0.23300
H 	H 	0.99160 0.62870 0.86060 0.16700
H 	H 	0.76680 0.65550 0.53170 0.09600
H 	H 	0.52340 0.31320 0.29170 0.21600
H 	H 	0.64790 0.29310 0.26830 0.20500
H 	H 	0.55540 0.32480 0.20090 0.20000
H 	H 	0.96570 0.75760 0.52920 0.17600
H 	H 	0.95640 0.72390 0.41440 0.17100
H 	H 	0.04420 0.68960 0.48170 0.12900
H 	H 	0.97310 0.28920 0.24130 0.27700
H 	H 	0.84020 0.28640 0.26210 0.24100
H 	H 	0.98100 0.37050 0.35020 0.27100
H 	H 	0.86460 0.62480 0.14480 0.24800
H 	H 	0.87190 0.66880 0.26010 0.25800
H 	H 	0.73740 0.58130 0.16610 0.24100
H 	H 	0.00840 0.37130 0.13940 0.04800
C 	C 	0.01170 0.73571 0.08499 -0.02300
C 	C 	0.66299 0.34451 0.89746 0.25700
C 	C 	0.54222 0.33945 0.83211 -0.17100
C 	C 	0.58180 0.42600 0.81990 0.27700
C 	C 	0.67540 0.26970 0.93510 -0.76000
C 	C 	0.50330 0.46640 0.76360 -0.78800
C 	C 	0.31980 0.23610 0.83130 0.26000
C 	C 	0.40243 0.26062 0.78257 -0.16100
C 	C 	0.31906 0.19942 0.67406 0.23300
C 	C 	0.34720 0.27590 0.94480 -0.78600
C 	C 	0.35750 0.19200 0.58470 -0.73300
C 	C 	0.98830 0.26429 0.91501 0.13300
C 	C 	0.33701 0.65549 0.10254 0.22900
C 	C 	0.45778 0.66055 0.16789 -0.15700
C 	C 	0.41820 0.57400 0.18010 0.25100
C 	C 	0.32460 0.73030 0.06490 -0.71200
C 	C 	0.49670 0.53360 0.23640 -0.75400
C 	C 	0.68020 0.76390 0.16870 0.26500
C 	C 	0.59757 0.73938 0.21743 -0.16700
C 	C 	0.68094 0.80058 0.32594 0.25600
C 	C 	0.65280 0.72410 0.05520 -0.74500
C 	C 	0.64250 0.80800 0.41530 -0.76300
C 	C 	0.92671 0.91501 0.65072 0.07500
C 	C 	0.76553 0.10254 0.44705 0.23700
C 	C 	0.71011 0.16789 0.50734 -0.16600
C 	C 	0.76190 0.18010 0.60610 0.26300
C 	C 	0.74030 0.06490 0.33460 -0.71900
C 	C 	0.73970 0.23640 0.70280 -0.77200
C 	C 	0.48850 0.16870 0.40480 0.24200
C 	C 	0.61986 0.21743 0.47805 -0.16000
C 	C 	0.64500 0.32594 0.52536 0.25100
C 	C 	0.40240 0.05520 0.33110 -0.70600
C 	C 	0.77280 0.41530 0.60730 -0.77800
C 	C 	0.07329 0.08499 0.34928 0.04500
C 	C 	0.23447 0.89746 0.55295 0.25300
C 	C 	0.28989 0.83211 0.49266 -0.16400
C 	C 	0.23810 0.81990 0.39390 0.26700
C 	C 	0.25970 0.93510 0.66540 -0.76200
C 	C 	0.26030 0.76360 0.29720 -0.77500
C 	C 	0.51150 0.83130 0.59520 0.28100
C 	C 	0.38014 0.78257 0.52195 -0.16500
C 	C 	0.35500 0.67406 0.47464 0.23500
C 	C 	0.59760 0.94480 0.66890 -0.82100
C 	C 	0.22720 0.58470 0.39270 -0.71500
C 	C 	0.27599 0.34928 0.26429 0.06800
C 	C 	0.31848 0.55295 0.65549 0.26800
C 	C 	0.20277 0.49266 0.66055 -0.21100
C 	C 	0.15580 0.39390 0.57400 0.33500
C 	C 	0.40570 0.66540 0.73030 -0.78500
C 	C 	0.03690 0.29720 0.53360 -1.03800
C 	C 	0.08370 0.59520 0.76390 0.24500
C 	C 	0.14181 0.52195 0.73938 -0.14300
C 	C 	0.11964 0.47464 0.80058 0.22800
C 	C 	0.07130 0.66890 0.72410 -0.72300
C 	C 	0.16550 0.39270 0.80800 -0.72000
C 	C 	0.72401 0.65072 0.73571 0.05400
C 	C 	0.68152 0.44705 0.34451 0.22000
C 	C 	0.79723 0.50734 0.33945 -0.11800
C 	C 	0.84420 0.60610 0.42600 0.19400
C 	C 	0.59430 0.33460 0.26970 -0.69200
C 	C 	0.96310 0.70280 0.46640 -0.50700
C 	C 	0.91630 0.40480 0.23610 0.28000
C 	C 	0.85819 0.47805 0.26062 -0.18400
C 	C 	0.88036 0.52536 0.19942 0.26300
C 	C 	0.92870 0.33110 0.27590 -0.80700
C 	C 	0.83450 0.60730 0.19200 -0.78100
S 	S 	0.04510 0.86066 0.14343 -0.12500
S 	S 	0.95490 0.13934 0.85657 -0.12900
S 	S 	0.90167 0.85657 0.71723 -0.07900
S 	S 	0.09833 0.14343 0.28277 -0.17700
S 	S 	0.18444 0.28277 0.13934 -0.18800
S 	S 	0.81556 0.71723 0.86066 -0.07000
N 	N 	0.99030 0.64662 0.04298 -0.22900
N 	N 	0.76972 0.42834 0.92232 -0.21300
N 	N 	0.71716 0.47586 0.87342 -0.22400
N 	N 	0.19314 0.14246 0.65746 -0.22700
N 	N 	0.19852 0.16637 0.75589 -0.22400
N 	N 	0.00970 0.35338 0.95702 -0.30600
N 	N 	0.23028 0.57166 0.07768 -0.23800
N 	N 	0.28284 0.52414 0.12658 -0.22300
N 	N 	0.80686 0.85754 0.34254 -0.19500
N 	N 	0.80148 0.83363 0.24411 -0.22300
N 	N 	0.94732 0.95702 0.60364 -0.24500
N 	N 	0.84740 0.07768 0.50602 -0.22400
N 	N 	0.84374 0.12658 0.60244 -0.22400
N 	N 	0.53568 0.34254 0.48500 -0.21700
N 	N 	0.44263 0.24411 0.41048 -0.21900
N 	N 	0.05268 0.04298 0.39636 -0.29900
N 	N 	0.15260 0.92232 0.49398 -0.22600
N 	N 	0.15626 0.87342 0.39756 -0.22300
N 	N 	0.46432 0.65746 0.51500 -0.21400
N 	N 	0.55737 0.75589 0.58952 -0.22800
N 	N 	0.34368 0.39636 0.35338 -0.28200
N 	N 	0.34138 0.49398 0.57166 -0.23500
N 	N 	0.24130 0.39756 0.52414 -0.24100
N 	N 	0.05068 0.51500 0.85754 -0.21000
N 	N 	0.03215 0.58952 0.83363 -0.26200
N 	N 	0.65632 0.60364 0.64662 -0.27500
N 	N 	0.65862 0.50602 0.42834 -0.22500
N 	N 	0.75870 0.60244 0.47586 -0.20600
N 	N 	0.94932 0.48500 0.14246 -0.21100
N 	N 	0.96785 0.41048 0.16637 -0.17900
