data_crystal

_cell_length_a 11.02150
_cell_length_b 15.14860
_cell_length_c 15.14860
_cell_angle_alpha 114.31600
_cell_angle_beta  104.03500
_cell_angle_gamma 104.03500

_symmetry_space_group_name_	'P 1'
_symmetry_space_group_name_H-M	'P 1'

loop_
_symmetry_equiv_pos_as_xyz
  x,y,z

loop_
_atom_site_label
_atom_site_type_symbol
_atom_site_fract_x
_atom_site_fract_y
_atom_site_fract_z
_atom_site_charge
Fe	Fe	0.50000 0.50000 0.50000 1.10400
Fe	Fe	-0.00000 0.00000 0.50000 1.05400
Fe	Fe	-0.00000 0.50000 -0.00000 1.05600
H 	H 	0.47700 0.70820 0.68720 0.24500
H 	H 	0.35210 0.73140 0.70720 0.23800
H 	H 	0.44520 0.79940 0.67610 0.24300
H 	H 	0.03450 0.47130 0.24160 0.30200
H 	H 	0.04490 0.58650 0.27580 0.29800
H 	H 	0.95560 0.51900 0.30940 0.34700
H 	H 	0.02660 0.75830 0.71120 0.22700
H 	H 	0.15970 0.73760 0.71390 0.22300
H 	H 	0.01860 0.64950 0.62950 0.22000
H 	H 	0.13540 0.85500 0.37540 0.22900
H 	H 	0.12790 0.73950 0.33130 0.22300
H 	H 	0.26270 0.83360 0.41900 0.23900
H 	H 	0.99090 0.86060 0.62810 0.17300
H 	H 	0.52300 0.29180 0.31280 0.21200
H 	H 	0.64790 0.26860 0.29280 0.20000
H 	H 	0.55480 0.20060 0.32390 0.19400
H 	H 	0.96550 0.52870 0.75840 0.17200
H 	H 	0.95510 0.41350 0.72420 0.16400
H 	H 	0.04440 0.48100 0.69060 0.12100
H 	H 	0.97340 0.24170 0.28880 0.28400
H 	H 	0.84030 0.26240 0.28610 0.24600
H 	H 	0.98140 0.35050 0.37050 0.28100
H 	H 	0.86460 0.14500 0.62460 0.25800
H 	H 	0.87210 0.26050 0.66870 0.26700
H 	H 	0.73730 0.16640 0.58100 0.24700
H 	H 	0.00910 0.13940 0.37190 0.05200
H 	H 	0.76880 0.97900 0.29180 0.25000
H 	H 	0.62070 0.97580 0.26860 0.23200
H 	H 	0.64580 0.87670 0.20060 0.22000
H 	H 	0.56320 0.77030 0.52870 0.24300
H 	H 	0.45840 0.68930 0.41350 0.23300
H 	H 	0.43660 0.79040 0.48100 0.24200
H 	H 	0.26830 0.95290 0.24170 0.26100
H 	H 	0.42210 0.97630 0.26240 0.24700
H 	H 	0.36910 0.98000 0.35050 0.26900
H 	H 	0.28040 0.52040 0.14500 0.23200
H 	H 	0.38840 0.59180 0.26050 0.23900
H 	H 	0.42910 0.58540 0.16640 0.23200
H 	H 	0.13030 0.76750 0.13940 0.09000
H 	H 	0.23120 0.02100 0.70820 0.20600
H 	H 	0.37930 0.02420 0.73140 0.20400
H 	H 	0.35420 0.12330 0.79940 0.21600
H 	H 	0.43680 0.22970 0.47130 0.22800
H 	H 	0.54160 0.31070 0.58650 0.22500
H 	H 	0.56340 0.20960 0.51900 0.22300
H 	H 	0.73170 0.04710 0.75830 0.24900
H 	H 	0.57790 0.02370 0.73760 0.22200
H 	H 	0.63090 0.02000 0.64950 0.23200
H 	H 	0.71960 0.47960 0.85500 0.25300
H 	H 	0.61160 0.40820 0.73950 0.24900
H 	H 	0.57090 0.41460 0.83360 0.25200
H 	H 	0.86970 0.23250 0.86060 0.14200
H 	H 	0.78980 0.31280 0.02100 0.22000
H 	H 	0.64490 0.29280 0.02420 0.20300
H 	H 	0.76910 0.32390 0.12330 0.21400
H 	H 	0.79290 0.75840 0.22970 0.23800
H 	H 	0.76910 0.72420 0.31070 0.23600
H 	H 	0.64620 0.69060 0.20960 0.22800
H 	H 	0.31540 0.28880 0.04710 0.22400
H 	H 	0.44580 0.28610 0.02370 0.20500
H 	H 	0.38910 0.37050 0.02000 0.21900
H 	H 	0.76000 0.62460 0.47960 0.25600
H 	H 	0.79660 0.66870 0.40820 0.26100
H 	H 	0.84370 0.58100 0.41460 0.26000
H 	H 	0.36280 0.37190 0.23250 0.11200
H 	H 	0.21020 0.68720 0.97900 0.24200
H 	H 	0.35510 0.70720 0.97580 0.23700
H 	H 	0.23090 0.67610 0.87670 0.22500
H 	H 	0.20710 0.24160 0.77030 0.23700
H 	H 	0.23090 0.27580 0.68930 0.22500
H 	H 	0.35380 0.30940 0.79040 0.23900
H 	H 	0.68460 0.71120 0.95290 0.28300
H 	H 	0.55420 0.71390 0.97630 0.26400
H 	H 	0.61090 0.62950 0.98000 0.28000
H 	H 	0.24000 0.37540 0.52040 0.22400
H 	H 	0.20340 0.33130 0.59180 0.22500
H 	H 	0.15630 0.41900 0.58540 0.22300
H 	H 	0.63720 0.62810 0.76750 0.11600
C 	C 	0.27609 0.26404 0.34923 0.07100
C 	C 	0.31858 0.65545 0.55269 0.26000
C 	C 	0.20202 0.66014 0.49232 -0.19900
C 	C 	0.15574 0.57384 0.39388 0.31400
C 	C 	0.40590 0.73020 0.66580 -0.77000
C 	C 	0.03720 0.53420 0.29660 -1.01200
C 	C 	0.08360 0.76410 0.59560 0.25400
C 	C 	0.14155 0.73970 0.52265 -0.15400
C 	C 	0.11940 0.80031 0.47509 0.23700
C 	C 	0.07100 0.72370 0.66900 -0.74000
C 	C 	0.16540 0.80780 0.39290 -0.73800
C 	C 	0.72391 0.73596 0.65077 0.05800
C 	C 	0.68142 0.34455 0.44731 0.21200
C 	C 	0.79798 0.33986 0.50768 -0.10500
C 	C 	0.84426 0.42616 0.60612 0.17300
C 	C 	0.59410 0.26980 0.33420 -0.67600
C 	C 	0.96280 0.46580 0.70340 -0.47700
C 	C 	0.91640 0.23590 0.40440 0.29100
C 	C 	0.85845 0.26030 0.47735 -0.19700
C 	C 	0.88060 0.19969 0.52491 0.27300
C 	C 	0.92900 0.27630 0.33100 -0.82600
C 	C 	0.83460 0.19220 0.60710 -0.80000
C 	C 	0.01205 0.08519 0.73596 -0.02000
C 	C 	0.66313 0.89724 0.34455 0.24800
C 	C 	0.54188 0.83218 0.33986 -0.15700
C 	C 	0.58190 0.82004 0.42616 0.25300
C 	C 	0.67570 0.93560 0.26980 -0.74400
C 	C 	0.50300 0.76240 0.46580 -0.75600
C 	C 	0.31950 0.83150 0.23590 0.27000
C 	C 	0.40185 0.78295 0.26030 -0.17300
C 	C 	0.31909 0.67478 0.19969 0.24300
C 	C 	0.34730 0.94530 0.27630 -0.80500
C 	C 	0.35760 0.58510 0.19220 -0.75200
C 	C 	0.98795 0.91481 0.26404 0.13700
C 	C 	0.33687 0.10276 0.65545 0.22200
C 	C 	0.45812 0.16782 0.66014 -0.14500
C 	C 	0.41810 0.17996 0.57384 0.23100
C 	C 	0.32430 0.06440 0.73020 -0.69700
C 	C 	0.49700 0.23760 0.53420 -0.72800
C 	C 	0.68050 0.16850 0.76410 0.27400
C 	C 	0.59815 0.21705 0.73970 -0.17800
C 	C 	0.68091 0.32522 0.80031 0.26500
C 	C 	0.65270 0.05470 0.72370 -0.76200
C 	C 	0.64240 0.41490 0.80780 -0.78200
C 	C 	0.92686 0.65077 0.91481 0.07800
C 	C 	0.76589 0.44731 0.10276 0.22900
C 	C 	0.70970 0.50768 0.16782 -0.15400
C 	C 	0.76186 0.60612 0.17996 0.24200
C 	C 	0.74010 0.33420 0.06440 -0.70400
C 	C 	0.74060 0.70340 0.23760 -0.74400
C 	C 	0.48800 0.40440 0.16850 0.25200
C 	C 	0.61890 0.47735 0.21705 -0.17200
C 	C 	0.64431 0.52491 0.32522 0.26100
C 	C 	0.40200 0.33100 0.05470 -0.72300
C 	C 	0.77250 0.60710 0.41490 -0.79700
C 	C 	0.07314 0.34923 0.08519 0.04800
C 	C 	0.23411 0.55269 0.89724 0.24500
C 	C 	0.29030 0.49232 0.83218 -0.15100
C 	C 	0.23814 0.39388 0.82004 0.24500
C 	C 	0.25990 0.66580 0.93560 -0.74600
C 	C 	0.25940 0.29660 0.76240 -0.74500
C 	C 	0.51200 0.59560 0.83150 0.29100
C 	C 	0.38110 0.52265 0.78295 -0.17700
C 	C 	0.35569 0.47509 0.67478 0.24500
C 	C 	0.59800 0.66900 0.94530 -0.84000
C 	C 	0.22750 0.39290 0.58510 -0.73300
S 	S 	0.18452 0.13937 0.28280 -0.18100
S 	S 	0.81548 0.86063 0.71720 -0.05900
S 	S 	0.04515 0.14343 0.86063 -0.11600
S 	S 	0.95485 0.85657 0.13937 -0.12000
S 	S 	0.90172 0.71720 0.85657 -0.07000
S 	S 	0.09828 0.28280 0.14343 -0.16900
N 	N 	0.34325 0.35341 0.39624 -0.27800
N 	N 	0.34162 0.57180 0.49396 -0.23700
N 	N 	0.24124 0.52385 0.39797 -0.17400
N 	N 	0.05055 0.85782 0.51523 -0.20900
N 	N 	0.03197 0.83374 0.58917 -0.26300
N 	N 	0.65675 0.64659 0.60376 -0.27100
N 	N 	0.65838 0.42820 0.50604 -0.22700
N 	N 	0.75876 0.47615 0.60203 -0.14100
N 	N 	0.94945 0.14218 0.48477 -0.21000
N 	N 	0.96803 0.16626 0.41083 -0.18000
N 	N 	0.98984 0.04283 0.64659 -0.22400
N 	N 	0.76982 0.92216 0.42820 -0.21500
N 	N 	0.71739 0.87412 0.47615 -0.14900
N 	N 	0.19273 0.65741 0.14218 -0.22600
N 	N 	0.19823 0.75543 0.16626 -0.22500
N 	N 	0.01016 0.95717 0.35341 -0.30200
N 	N 	0.23018 0.07784 0.57180 -0.24000
N 	N 	0.28261 0.12588 0.52385 -0.16400
N 	N 	0.80727 0.34259 0.85782 -0.19400
N 	N 	0.80177 0.24457 0.83374 -0.22500
N 	N 	0.94701 0.60376 0.95717 -0.24000
N 	N 	0.84766 0.50604 0.07784 -0.22600
N 	N 	0.84327 0.60203 0.12588 -0.15700
N 	N 	0.53532 0.48477 0.34259 -0.21600
N 	N 	0.44280 0.41083 0.24457 -0.22000
N 	N 	0.05299 0.39624 0.04283 -0.29500
N 	N 	0.15234 0.49396 0.92216 -0.22800
N 	N 	0.15673 0.39797 0.87412 -0.15600
N 	N 	0.46468 0.51523 0.65741 -0.21300
N 	N 	0.55720 0.58917 0.75543 -0.22900
