data_crystal

_cell_length_a 5.04320
_cell_length_b 7.24680
_cell_length_c 8.34990
_cell_angle_alpha 107.48900
_cell_angle_beta  92.44400
_cell_angle_gamma 109.33800

_symmetry_space_group_name_	'P 1'
_symmetry_space_group_name_H-M	'P 1'

loop_
_symmetry_equiv_pos_as_xyz
  x,y,z

loop_
_atom_site_label
_atom_site_type_symbol
_atom_site_fract_x
_atom_site_fract_y
_atom_site_fract_z
_atom_site_charge
Ga	Ga	0.00000 0.50000 -0.00000 1.96200
Ga	Ga	0.50000 0.00000 -0.00000 1.90100
P 	P 	0.51270 0.54637 0.77603 0.50400
P 	P 	0.48730 0.45363 0.22397 0.52600
H 	H 	0.21960 0.47900 0.52980 0.01000
H 	H 	0.34300 0.30260 0.50840 -0.00300
H 	H 	0.78040 0.52100 0.47020 0.18700
H 	H 	0.65700 0.69740 0.49160 0.21600
C 	C 	0.39160 0.45170 0.55030 -0.08300
C 	C 	0.60840 0.54830 0.44970 -0.32800
O 	O 	0.26900 0.43360 0.85570 -0.40600
O 	O 	0.59310 0.78140 0.83680 -0.26500
O 	O 	0.77440 0.49030 0.79950 -0.30600
O 	O 	0.73100 0.56640 0.14430 -0.63900
O 	O 	0.40690 0.21860 0.16320 -0.85400
O 	O 	0.22560 0.50970 0.20050 -0.69400
F 	F 	0.19470 0.79720 0.05890 -1.08500
F 	F 	0.80530 0.20280 0.94110 -0.64300
