data_crystal

_cell_length_a 11.01920
_cell_length_b 11.01920
_cell_length_c 17.03880
_cell_angle_alpha 91.65390
_cell_angle_beta  91.65390
_cell_angle_gamma 90.66770

_symmetry_space_group_name_	'P 1'
_symmetry_space_group_name_H-M	'P 1'

loop_
_symmetry_equiv_pos_as_xyz
  x,y,z

loop_
_atom_site_label
_atom_site_type_symbol
_atom_site_fract_x
_atom_site_fract_y
_atom_site_fract_z
_atom_site_charge
Zn	Zn	0.46298 0.65636 0.81743 1.20900
Zn	Zn	0.81551 0.30249 0.17482 1.19400
Zn	Zn	0.34364 0.53702 0.68257 1.20900
Zn	Zn	0.69751 0.18449 0.32518 1.19400
Zn	Zn	0.53702 0.34364 0.18257 1.20900
Zn	Zn	0.18449 0.69751 0.82518 1.19400
Zn	Zn	0.65636 0.46298 0.31743 1.20900
Zn	Zn	0.30249 0.81551 0.67482 1.19400
H 	H 	0.56030 0.65170 0.03710 0.03100
H 	H 	0.69440 0.82300 0.23180 0.02300
H 	H 	0.67820 0.99540 0.02940 0.02000
H 	H 	0.00720 0.79200 0.12770 0.04900
H 	H 	0.92270 0.76730 0.98450 0.05000
H 	H 	0.67240 0.25900 0.88230 0.06200
H 	H 	0.72490 0.45350 0.85190 0.05300
H 	H 	0.82790 0.65150 0.89190 0.06000
H 	H 	0.03130 0.71070 0.24820 0.06600
H 	H 	0.70620 0.19660 0.00720 0.02300
H 	H 	0.96150 0.51630 0.26890 0.00800
H 	H 	0.34830 0.43970 0.46290 0.03200
H 	H 	0.17700 0.30560 0.26820 0.02400
H 	H 	0.00460 0.32180 0.47060 0.02000
H 	H 	0.20800 0.99280 0.37230 0.04900
H 	H 	0.23270 0.07730 0.51550 0.05000
H 	H 	0.74100 0.32760 0.61770 0.06300
H 	H 	0.54650 0.27510 0.64810 0.05300
H 	H 	0.34850 0.17210 0.60810 0.06000
H 	H 	0.28930 0.96870 0.25180 0.06700
H 	H 	0.80340 0.29380 0.49280 0.02200
H 	H 	0.48370 0.03850 0.23110 0.00800
H 	H 	0.43970 0.34830 0.96290 0.03200
H 	H 	0.30560 0.17700 0.76820 0.02400
H 	H 	0.32180 0.00460 0.97060 0.02000
H 	H 	0.99280 0.20800 0.87230 0.04900
H 	H 	0.07730 0.23270 0.01550 0.05000
H 	H 	0.32760 0.74100 0.11770 0.06200
H 	H 	0.27510 0.54650 0.14810 0.05300
H 	H 	0.17210 0.34850 0.10810 0.06000
H 	H 	0.96870 0.28930 0.75180 0.06600
H 	H 	0.29380 0.80340 0.99280 0.02300
H 	H 	0.03850 0.48370 0.73110 0.00800
H 	H 	0.65170 0.56030 0.53710 0.03200
H 	H 	0.82300 0.69440 0.73180 0.02400
H 	H 	0.99540 0.67820 0.52940 0.02000
H 	H 	0.79200 0.00720 0.62770 0.04900
H 	H 	0.76730 0.92270 0.48450 0.05000
H 	H 	0.25900 0.67240 0.38230 0.06300
H 	H 	0.45350 0.72490 0.35190 0.05300
H 	H 	0.65150 0.82790 0.39190 0.06000
H 	H 	0.71070 0.03130 0.74820 0.06700
H 	H 	0.19660 0.70620 0.50720 0.02200
H 	H 	0.51630 0.96150 0.76890 0.00800
C 	C 	0.69280 0.92700 0.13720 -0.16900
C 	C 	0.59420 0.72080 0.06190 0.08600
C 	C 	0.73770 0.03910 0.17870 0.40300
C 	C 	0.61170 0.82390 0.01960 -0.14700
C 	C 	0.67440 0.82320 0.17840 0.10100
C 	C 	0.57580 0.82380 0.93320 0.38900
C 	C 	0.62700 0.71920 0.14170 -0.15600
C 	C 	0.66330 0.92630 0.05780 0.09600
C 	C 	0.61080 0.60360 0.18430 0.40100
C 	C 	0.97800 0.71420 0.13640 -0.03500
C 	C 	0.89670 0.68970 0.99670 -0.05000
C 	C 	0.70860 0.31140 0.92010 -0.06800
C 	C 	0.74130 0.42590 0.90220 -0.04600
C 	C 	0.84020 0.62100 0.94170 -0.06600
C 	C 	0.99280 0.66620 0.20740 -0.07000
C 	C 	0.79800 0.50160 0.95680 0.02500
C 	C 	0.91860 0.64700 0.07480 0.01700
C 	C 	0.73030 0.27490 0.99500 0.04900
C 	C 	0.87670 0.53050 0.09210 0.02000
C 	C 	0.94950 0.54870 0.21950 0.04700
C 	C 	0.81750 0.45670 0.03260 0.02000
C 	C 	0.07300 0.30720 0.36280 -0.16900
C 	C 	0.27920 0.40580 0.43810 0.08600
C 	C 	0.96090 0.26230 0.32130 0.40300
C 	C 	0.17610 0.38830 0.48040 -0.14600
C 	C 	0.17680 0.32560 0.32160 0.10100
C 	C 	0.17620 0.42420 0.56680 0.38900
C 	C 	0.28080 0.37300 0.35830 -0.15600
C 	C 	0.07370 0.33670 0.44220 0.09500
C 	C 	0.39640 0.38920 0.31570 0.40100
C 	C 	0.28580 0.02200 0.36360 -0.03500
C 	C 	0.31030 0.10330 0.50330 -0.04900
C 	C 	0.68860 0.29140 0.57990 -0.06900
C 	C 	0.57410 0.25870 0.59780 -0.04500
C 	C 	0.37900 0.15980 0.55830 -0.06700
C 	C 	0.33380 0.00720 0.29260 -0.07100
C 	C 	0.49840 0.20200 0.54320 0.02600
C 	C 	0.35300 0.08140 0.42520 0.01600
C 	C 	0.72510 0.26970 0.50500 0.05100
C 	C 	0.46950 0.12330 0.40790 0.02000
C 	C 	0.45130 0.05050 0.28050 0.04700
C 	C 	0.54330 0.18250 0.46740 0.01900
C 	C 	0.30720 0.07300 0.86280 -0.16900
C 	C 	0.40580 0.27920 0.93810 0.08600
C 	C 	0.26230 0.96090 0.82130 0.40300
C 	C 	0.38830 0.17610 0.98040 -0.14700
C 	C 	0.32560 0.17680 0.82160 0.10100
C 	C 	0.42420 0.17620 0.06680 0.38900
C 	C 	0.37300 0.28080 0.85830 -0.15600
C 	C 	0.33670 0.07370 0.94220 0.09600
C 	C 	0.38920 0.39640 0.81570 0.40100
C 	C 	0.02200 0.28580 0.86360 -0.03500
C 	C 	0.10330 0.31030 0.00330 -0.05000
C 	C 	0.29140 0.68860 0.07990 -0.06800
C 	C 	0.25870 0.57410 0.09780 -0.04600
C 	C 	0.15980 0.37900 0.05830 -0.06600
C 	C 	0.00720 0.33380 0.79260 -0.07000
C 	C 	0.20200 0.49840 0.04320 0.02500
C 	C 	0.08140 0.35300 0.92520 0.01700
C 	C 	0.26970 0.72510 0.00500 0.04900
C 	C 	0.12330 0.46950 0.90790 0.02000
C 	C 	0.05050 0.45130 0.78050 0.04700
C 	C 	0.18250 0.54330 0.96740 0.02000
C 	C 	0.92700 0.69280 0.63720 -0.16900
C 	C 	0.72080 0.59420 0.56190 0.08600
C 	C 	0.03910 0.73770 0.67870 0.40300
C 	C 	0.82390 0.61170 0.51960 -0.14600
C 	C 	0.82320 0.67440 0.67840 0.10100
C 	C 	0.82380 0.57580 0.43320 0.38900
C 	C 	0.71920 0.62700 0.64170 -0.15600
C 	C 	0.92630 0.66330 0.55780 0.09500
C 	C 	0.60360 0.61080 0.68430 0.40100
C 	C 	0.71420 0.97800 0.63640 -0.03500
C 	C 	0.68970 0.89670 0.49670 -0.04900
C 	C 	0.31140 0.70860 0.42010 -0.06900
C 	C 	0.42590 0.74130 0.40220 -0.04500
C 	C 	0.62100 0.84020 0.44170 -0.06700
C 	C 	0.66620 0.99280 0.70740 -0.07100
C 	C 	0.50160 0.79800 0.45680 0.02600
C 	C 	0.64700 0.91860 0.57480 0.01600
C 	C 	0.27490 0.73030 0.49500 0.05100
C 	C 	0.53050 0.87670 0.59210 0.02000
C 	C 	0.54870 0.94950 0.71950 0.04700
C 	C 	0.45670 0.81750 0.53260 0.01900
N 	N 	0.89280 0.48180 0.16440 -0.24100
N 	N 	0.78330 0.34370 0.05160 -0.23200
N 	N 	0.51820 0.10720 0.33560 -0.24100
N 	N 	0.65630 0.21670 0.44840 -0.23300
N 	N 	0.10720 0.51820 0.83560 -0.24100
N 	N 	0.21670 0.65630 0.94840 -0.23200
N 	N 	0.48180 0.89280 0.66440 -0.24100
N 	N 	0.34370 0.78330 0.55160 -0.23300
O 	O 	0.50040 0.73800 0.91331 -0.49600
O 	O 	0.61660 0.89900 0.89070 -0.30800
O 	O 	0.77640 0.12540 0.13914 -0.47700
O 	O 	0.73590 0.04230 0.25296 -0.48000
O 	O 	0.57210 0.51150 0.14645 -0.50400
O 	O 	0.63920 0.60920 0.25664 -0.49900
O 	O 	0.26200 0.49960 0.58669 -0.49600
O 	O 	0.10100 0.38340 0.60930 -0.30800
O 	O 	0.87460 0.22360 0.36086 -0.47700
O 	O 	0.95770 0.26410 0.24704 -0.48000
O 	O 	0.48850 0.42790 0.35355 -0.50400
O 	O 	0.39080 0.36080 0.24336 -0.49900
O 	O 	0.49960 0.26200 0.08669 -0.49600
O 	O 	0.38340 0.10100 0.10930 -0.30800
O 	O 	0.22360 0.87460 0.86086 -0.47700
O 	O 	0.26410 0.95770 0.74704 -0.48000
O 	O 	0.42790 0.48850 0.85355 -0.50400
O 	O 	0.36080 0.39080 0.74336 -0.49900
O 	O 	0.73800 0.50040 0.41331 -0.49600
O 	O 	0.89900 0.61660 0.39070 -0.30800
O 	O 	0.12540 0.77640 0.63914 -0.47700
O 	O 	0.04230 0.73590 0.75296 -0.48000
O 	O 	0.51150 0.57210 0.64645 -0.50400
O 	O 	0.60920 0.63920 0.75664 -0.49900
O 	O 	0.31970 0.68030 0.75000 -0.91900
O 	O 	0.68030 0.31970 0.25000 -0.91900
