data_crystal

_cell_length_a 17.89540
_cell_length_b 17.89540
_cell_length_c 18.62500
_cell_angle_alpha 90.00000
_cell_angle_beta  90.00000
_cell_angle_gamma 120.00000

_symmetry_space_group_name_	'P 1'
_symmetry_space_group_name_H-M	'P 1'

loop_
_symmetry_equiv_pos_as_xyz
  x,y,z

loop_
_atom_site_label
_atom_site_type_symbol
_atom_site_fract_x
_atom_site_fract_y
_atom_site_fract_z
_atom_site_charge
Zn	Zn	0.65796 0.04455 0.28961 1.20700
Zn	Zn	0.95545 0.61341 0.28961 1.20700
Zn	Zn	0.38659 0.34204 0.28961 1.20700
Zn	Zn	0.32463 0.37788 0.62294 1.20700
Zn	Zn	0.62212 0.94674 0.62294 1.20800
Zn	Zn	0.05326 0.67537 0.62294 1.20800
Zn	Zn	0.99129 0.71122 0.95628 1.20700
Zn	Zn	0.28878 0.28008 0.95628 1.20800
Zn	Zn	0.71992 0.00871 0.95628 1.20700
Zn	Zn	0.34204 0.95545 0.71039 1.20800
Zn	Zn	0.04455 0.38659 0.71039 1.20800
Zn	Zn	0.61341 0.65796 0.71039 1.20800
Zn	Zn	0.67537 0.62212 0.37706 1.20800
Zn	Zn	0.37788 0.05326 0.37706 1.20800
Zn	Zn	0.94674 0.32463 0.37706 1.20800
Zn	Zn	0.00871 0.28878 0.04372 1.20700
Zn	Zn	0.71122 0.71992 0.04372 1.20800
Zn	Zn	0.28008 0.99129 0.04372 1.20700
H 	H 	0.69500 0.81500 0.18300 0.16200
H 	H 	0.18500 0.88000 0.18300 0.16100
H 	H 	0.12000 0.30500 0.18300 0.16100
H 	H 	0.36167 0.14833 0.51633 0.16200
H 	H 	0.85167 0.21333 0.51633 0.16200
H 	H 	0.78667 0.63833 0.51633 0.16200
H 	H 	0.02833 0.48167 0.84967 0.16200
H 	H 	0.51833 0.54667 0.84967 0.16200
H 	H 	0.45333 0.97167 0.84967 0.16200
H 	H 	0.30500 0.18500 0.81700 0.16200
H 	H 	0.81500 0.12000 0.81700 0.16100
H 	H 	0.88000 0.69500 0.81700 0.16100
H 	H 	0.63833 0.85167 0.48367 0.16200
H 	H 	0.14833 0.78667 0.48367 0.16200
H 	H 	0.21333 0.36167 0.48367 0.16200
H 	H 	0.97167 0.51833 0.15033 0.16200
H 	H 	0.48167 0.45333 0.15033 0.16200
H 	H 	0.54667 0.02833 0.15033 0.16200
H 	H 	0.67400 0.80800 0.26600 0.28300
H 	H 	0.19200 0.86600 0.26600 0.28200
H 	H 	0.13400 0.32600 0.26600 0.28200
H 	H 	0.34067 0.14133 0.59933 0.28300
H 	H 	0.85867 0.19933 0.59933 0.28300
H 	H 	0.80067 0.65933 0.59933 0.28300
H 	H 	0.00733 0.47467 0.93267 0.28400
H 	H 	0.52533 0.53267 0.93267 0.28300
H 	H 	0.46733 0.99267 0.93267 0.28500
H 	H 	0.32600 0.19200 0.73400 0.28300
H 	H 	0.80800 0.13400 0.73400 0.28200
H 	H 	0.86600 0.67400 0.73400 0.28200
H 	H 	0.65933 0.85867 0.40067 0.28300
H 	H 	0.14133 0.80067 0.40067 0.28300
H 	H 	0.19933 0.34067 0.40067 0.28300
H 	H 	0.99267 0.52533 0.06733 0.28400
H 	H 	0.47467 0.46733 0.06733 0.28300
H 	H 	0.53267 0.00733 0.06733 0.28500
H 	H 	0.73500 0.86900 0.96500 0.13000
H 	H 	0.13100 0.86600 0.96500 0.13000
H 	H 	0.13400 0.26500 0.96500 0.13000
H 	H 	0.40167 0.20233 0.29833 0.13000
H 	H 	0.79767 0.19933 0.29833 0.13000
H 	H 	0.80067 0.59833 0.29833 0.13000
H 	H 	0.06833 0.53567 0.63167 0.13000
H 	H 	0.46433 0.53267 0.63167 0.13000
H 	H 	0.46733 0.93167 0.63167 0.13000
H 	H 	0.26500 0.13100 0.03500 0.13000
H 	H 	0.86900 0.13400 0.03500 0.13000
H 	H 	0.86600 0.73500 0.03500 0.13000
H 	H 	0.59833 0.79767 0.70167 0.13000
H 	H 	0.20233 0.80067 0.70167 0.13000
H 	H 	0.19933 0.40167 0.70167 0.13000
H 	H 	0.93167 0.46433 0.36833 0.13000
H 	H 	0.53567 0.46733 0.36833 0.13000
H 	H 	0.53267 0.06833 0.36833 0.13000
C 	C 	0.71590 0.07310 0.12320 0.21500
C 	C 	0.92690 0.64280 0.12320 0.21500
C 	C 	0.35720 0.28410 0.12320 0.21500
C 	C 	0.38257 0.40643 0.45653 0.21500
C 	C 	0.59357 0.97613 0.45653 0.21400
C 	C 	0.02387 0.61743 0.45653 0.21400
C 	C 	0.04923 0.73977 0.78987 0.21500
C 	C 	0.26023 0.30947 0.78987 0.21500
C 	C 	0.69053 0.95077 0.78987 0.21500
C 	C 	0.28410 0.92690 0.87680 0.21500
C 	C 	0.07310 0.35720 0.87680 0.21500
C 	C 	0.64280 0.71590 0.87680 0.21500
C 	C 	0.61743 0.59357 0.54347 0.21500
C 	C 	0.40643 0.02387 0.54347 0.21400
C 	C 	0.97613 0.38257 0.54347 0.21400
C 	C 	0.95077 0.26023 0.21013 0.21500
C 	C 	0.73977 0.69053 0.21013 0.21500
C 	C 	0.30947 0.04923 0.21013 0.21500
C 	C 	0.67590 0.90030 0.23800 0.28200
C 	C 	0.09970 0.77560 0.23800 0.28200
C 	C 	0.22440 0.32410 0.23800 0.28200
C 	C 	0.34257 0.23363 0.57133 0.28200
C 	C 	0.76637 0.10893 0.57133 0.28200
C 	C 	0.89107 0.65743 0.57133 0.28200
C 	C 	0.00923 0.56697 0.90467 0.28600
C 	C 	0.43303 0.44227 0.90467 0.28200
C 	C 	0.55773 0.99077 0.90467 0.28600
C 	C 	0.32410 0.09970 0.76200 0.28200
C 	C 	0.90030 0.22440 0.76200 0.28200
C 	C 	0.77560 0.67590 0.76200 0.28200
C 	C 	0.65743 0.76637 0.42867 0.28200
C 	C 	0.23363 0.89107 0.42867 0.28200
C 	C 	0.10893 0.34257 0.42867 0.28200
C 	C 	0.99077 0.43303 0.09533 0.28600
C 	C 	0.56697 0.55773 0.09533 0.28200
C 	C 	0.44227 0.00923 0.09533 0.28600
C 	C 	0.69420 0.95600 0.17380 -0.02800
C 	C 	0.04400 0.73820 0.17380 -0.02800
C 	C 	0.26180 0.30580 0.17380 -0.02600
C 	C 	0.36087 0.28933 0.50713 -0.02600
C 	C 	0.71067 0.07153 0.50713 -0.02600
C 	C 	0.92847 0.63913 0.50713 -0.02600
C 	C 	0.02753 0.62267 0.84047 -0.02700
C 	C 	0.37733 0.40487 0.84047 -0.02600
C 	C 	0.59513 0.97247 0.84047 -0.02700
C 	C 	0.30580 0.04400 0.82620 -0.02800
C 	C 	0.95600 0.26180 0.82620 -0.02800
C 	C 	0.73820 0.69420 0.82620 -0.02600
C 	C 	0.63913 0.71067 0.49287 -0.02600
C 	C 	0.28933 0.92847 0.49287 -0.02600
C 	C 	0.07153 0.36087 0.49287 -0.02600
C 	C 	0.97247 0.37733 0.15953 -0.02700
C 	C 	0.62267 0.59513 0.15953 -0.02600
C 	C 	0.40487 0.02753 0.15953 -0.02700
C 	C 	0.71260 0.95400 0.10260 -0.02400
C 	C 	0.04600 0.75860 0.10260 -0.02400
C 	C 	0.24140 0.28740 0.10260 -0.02200
C 	C 	0.37927 0.28733 0.43593 -0.02200
C 	C 	0.71267 0.09193 0.43593 -0.02200
C 	C 	0.90807 0.62073 0.43593 -0.02200
C 	C 	0.04593 0.62067 0.76927 -0.02200
C 	C 	0.37933 0.42527 0.76927 -0.02300
C 	C 	0.57473 0.95407 0.76927 -0.02200
C 	C 	0.28740 0.04600 0.89740 -0.02400
C 	C 	0.95400 0.24140 0.89740 -0.02400
C 	C 	0.75860 0.71260 0.89740 -0.02200
C 	C 	0.62073 0.71267 0.56407 -0.02200
C 	C 	0.28733 0.90807 0.56407 -0.02200
C 	C 	0.09193 0.37927 0.56407 -0.02200
C 	C 	0.95407 0.37933 0.23073 -0.02200
C 	C 	0.62067 0.57473 0.23073 -0.02300
C 	C 	0.42527 0.04593 0.23073 -0.02200
C 	C 	0.71550 0.88740 0.05610 0.22900
C 	C 	0.11260 0.82810 0.05610 0.22500
C 	C 	0.17190 0.28450 0.05610 0.22900
C 	C 	0.38217 0.22073 0.38943 0.22900
C 	C 	0.77927 0.16143 0.38943 0.23000
C 	C 	0.83857 0.61783 0.38943 0.22900
C 	C 	0.04883 0.55407 0.72277 0.22900
C 	C 	0.44593 0.49477 0.72277 0.22900
C 	C 	0.50523 0.95117 0.72277 0.22900
C 	C 	0.28450 0.11260 0.94390 0.22900
C 	C 	0.88740 0.17190 0.94390 0.22500
C 	C 	0.82810 0.71550 0.94390 0.22900
C 	C 	0.61783 0.77927 0.61057 0.22900
C 	C 	0.22073 0.83857 0.61057 0.23000
C 	C 	0.16143 0.38217 0.61057 0.22900
C 	C 	0.95117 0.44593 0.27723 0.22900
C 	C 	0.55407 0.50523 0.27723 0.22900
C 	C 	0.49477 0.04883 0.27723 0.22900
Br	Br	0.72991 0.18048 0.11097 -0.32500
Br	Br	0.81952 0.54943 0.11097 -0.32600
Br	Br	0.45057 0.27009 0.11097 -0.32600
Br	Br	0.39658 0.51381 0.44430 -0.32600
Br	Br	0.48619 0.88276 0.44430 -0.32700
Br	Br	0.11724 0.60342 0.44430 -0.32700
Br	Br	0.06324 0.84715 0.77764 -0.32400
Br	Br	0.15285 0.21610 0.77764 -0.32600
Br	Br	0.78390 0.93676 0.77764 -0.32600
Br	Br	0.27009 0.81952 0.88903 -0.32500
Br	Br	0.18048 0.45057 0.88903 -0.32600
Br	Br	0.54943 0.72991 0.88903 -0.32600
Br	Br	0.60342 0.48619 0.55570 -0.32600
Br	Br	0.51381 0.11724 0.55570 -0.32700
Br	Br	0.88276 0.39658 0.55570 -0.32700
Br	Br	0.93676 0.15285 0.22236 -0.32400
Br	Br	0.84715 0.78390 0.22236 -0.32600
Br	Br	0.21610 0.06324 0.22236 -0.32600
N 	N 	0.72520 0.02760 0.07020 -0.24300
N 	N 	0.97240 0.69760 0.07020 -0.24400
N 	N 	0.30240 0.27480 0.07020 -0.24500
N 	N 	0.39187 0.36093 0.40353 -0.24500
N 	N 	0.63907 0.03093 0.40353 -0.24500
N 	N 	0.96907 0.60813 0.40353 -0.24500
N 	N 	0.05853 0.69427 0.73687 -0.24500
N 	N 	0.30573 0.36427 0.73687 -0.24500
N 	N 	0.63573 0.94147 0.73687 -0.24500
N 	N 	0.27480 0.97240 0.92980 -0.24300
N 	N 	0.02760 0.30240 0.92980 -0.24400
N 	N 	0.69760 0.72520 0.92980 -0.24500
N 	N 	0.60813 0.63907 0.59647 -0.24500
N 	N 	0.36093 0.96907 0.59647 -0.24500
N 	N 	0.03093 0.39187 0.59647 -0.24500
N 	N 	0.94147 0.30573 0.26313 -0.24500
N 	N 	0.69427 0.63573 0.26313 -0.24500
N 	N 	0.36427 0.05853 0.26313 -0.24500
N 	N 	0.69680 0.03230 0.18650 -0.24300
N 	N 	0.96770 0.66450 0.18650 -0.24300
N 	N 	0.33550 0.30320 0.18650 -0.24400
N 	N 	0.36347 0.36563 0.51983 -0.24400
N 	N 	0.63437 0.99783 0.51983 -0.24400
N 	N 	0.00217 0.63653 0.51983 -0.24400
N 	N 	0.03013 0.69897 0.85317 -0.24300
N 	N 	0.30103 0.33117 0.85317 -0.24400
N 	N 	0.66883 0.96987 0.85317 -0.24300
N 	N 	0.30320 0.96770 0.81350 -0.24300
N 	N 	0.03230 0.33550 0.81350 -0.24300
N 	N 	0.66450 0.69680 0.81350 -0.24400
N 	N 	0.63653 0.63437 0.48017 -0.24400
N 	N 	0.36563 0.00217 0.48017 -0.24400
N 	N 	0.99783 0.36347 0.48017 -0.24400
N 	N 	0.96987 0.30103 0.14683 -0.24300
N 	N 	0.69897 0.66883 0.14683 -0.24400
N 	N 	0.33117 0.03013 0.14683 -0.24300
N 	N 	0.67710 0.82900 0.23210 -0.41200
N 	N 	0.17100 0.84810 0.23210 -0.41200
N 	N 	0.15190 0.32290 0.23210 -0.41200
N 	N 	0.34377 0.16233 0.56543 -0.41200
N 	N 	0.83767 0.18143 0.56543 -0.41200
N 	N 	0.81857 0.65623 0.56543 -0.41200
N 	N 	0.01043 0.49567 0.89877 -0.41400
N 	N 	0.50433 0.51477 0.89877 -0.41200
N 	N 	0.48523 0.98957 0.89877 -0.41400
N 	N 	0.32290 0.17100 0.76790 -0.41200
N 	N 	0.82900 0.15190 0.76790 -0.41200
N 	N 	0.84810 0.67710 0.76790 -0.41200
N 	N 	0.65623 0.83767 0.43457 -0.41200
N 	N 	0.16233 0.81857 0.43457 -0.41200
N 	N 	0.18143 0.34377 0.43457 -0.41200
N 	N 	0.98957 0.50433 0.10123 -0.41400
N 	N 	0.49567 0.48523 0.10123 -0.41200
N 	N 	0.51477 0.01043 0.10123 -0.41400
N 	N 	0.72790 0.90730 0.98930 -0.37800
N 	N 	0.09270 0.82060 0.98930 -0.37500
N 	N 	0.17940 0.27210 0.98930 -0.37900
N 	N 	0.39457 0.24063 0.32263 -0.37900
N 	N 	0.75937 0.15393 0.32263 -0.37900
N 	N 	0.84607 0.60543 0.32263 -0.37900
N 	N 	0.06123 0.57397 0.65597 -0.37900
N 	N 	0.42603 0.48727 0.65597 -0.37900
N 	N 	0.51273 0.93877 0.65597 -0.37900
N 	N 	0.27210 0.09270 0.01070 -0.37800
N 	N 	0.90730 0.17940 0.01070 -0.37500
N 	N 	0.82060 0.72790 0.01070 -0.37900
N 	N 	0.60543 0.75937 0.67737 -0.37900
N 	N 	0.24063 0.84607 0.67737 -0.37900
N 	N 	0.15393 0.39457 0.67737 -0.37900
N 	N 	0.93877 0.42603 0.34403 -0.37900
N 	N 	0.57397 0.51273 0.34403 -0.37900
N 	N 	0.48727 0.06123 0.34403 -0.37900
O 	O 	0.66070 0.92720 0.29604 -0.41100
O 	O 	0.07280 0.73350 0.29604 -0.41100
O 	O 	0.26650 0.33930 0.29604 -0.41000
O 	O 	0.32737 0.26053 0.62937 -0.41000
O 	O 	0.73947 0.06683 0.62937 -0.41100
O 	O 	0.93317 0.67263 0.62937 -0.41100
O 	O 	0.99403 0.59387 0.96271 -0.41400
O 	O 	0.40613 0.40017 0.96271 -0.41000
O 	O 	0.59983 0.00597 0.96271 -0.41500
O 	O 	0.33930 0.07280 0.70396 -0.41100
O 	O 	0.92720 0.26650 0.70396 -0.41100
O 	O 	0.73350 0.66070 0.70396 -0.41000
O 	O 	0.67263 0.73947 0.37063 -0.41000
O 	O 	0.26053 0.93317 0.37063 -0.41100
O 	O 	0.06683 0.32737 0.37063 -0.41100
O 	O 	0.00597 0.40613 0.03729 -0.41400
O 	O 	0.59387 0.59983 0.03729 -0.41000
O 	O 	0.40017 0.99403 0.03729 -0.41500
O 	O 	0.70750 0.81950 0.08567 -0.44300
O 	O 	0.18050 0.88800 0.08567 -0.44300
O 	O 	0.11200 0.29250 0.08567 -0.44400
O 	O 	0.37417 0.15283 0.41900 -0.44300
O 	O 	0.84717 0.22133 0.41900 -0.44300
O 	O 	0.77867 0.62583 0.41900 -0.44300
O 	O 	0.04083 0.48617 0.75234 -0.44300
O 	O 	0.51383 0.55467 0.75234 -0.44300
O 	O 	0.44533 0.95917 0.75234 -0.44300
O 	O 	0.29250 0.18050 0.91433 -0.44300
O 	O 	0.81950 0.11200 0.91433 -0.44300
O 	O 	0.88800 0.70750 0.91433 -0.44400
O 	O 	0.62583 0.84717 0.58100 -0.44300
O 	O 	0.15283 0.77867 0.58100 -0.44300
O 	O 	0.22133 0.37417 0.58100 -0.44300
O 	O 	0.95917 0.51383 0.24766 -0.44300
O 	O 	0.48617 0.44533 0.24766 -0.44300
O 	O 	0.55467 0.04083 0.24766 -0.44300
