data_crystal

_cell_length_a 5.96600
_cell_length_b 19.01320
_cell_length_c 19.01320
_cell_angle_alpha 78.67300
_cell_angle_beta  82.24850
_cell_angle_gamma 82.24850

_symmetry_space_group_name_	'P 1'
_symmetry_space_group_name_H-M	'P 1'

loop_
_symmetry_equiv_pos_as_xyz
  x,y,z

loop_
_atom_site_label
_atom_site_type_symbol
_atom_site_fract_x
_atom_site_fract_y
_atom_site_fract_z
_atom_site_charge
Zn	Zn	0.50000 0.00000 -0.00000 1.25700
Zn	Zn	0.00000 0.06012 0.93988 1.19900
Zn	Zn	-0.00000 0.93988 0.06012 1.19900
H 	H 	0.75230 0.28730 0.92810 -0.05200
H 	H 	0.55280 0.39690 0.94170 0.16100
H 	H 	0.01120 0.30410 0.02910 0.16100
H 	H 	0.19040 0.19480 0.00760 -0.11600
H 	H 	0.04880 0.56100 0.08800 0.12000
H 	H 	0.34540 0.47880 0.13080 0.19300
H 	H 	0.50220 0.45290 0.06350 0.20200
H 	H 	0.35690 0.39720 0.11940 0.19400
H 	H 	0.24770 0.07190 0.71270 0.00500
H 	H 	0.44720 0.05830 0.60310 0.04400
H 	H 	0.98880 0.97090 0.69590 0.05800
H 	H 	0.80960 0.99240 0.80520 0.07200
H 	H 	0.95120 0.91200 0.43900 -0.00300
H 	H 	0.65460 0.86920 0.52120 0.12700
H 	H 	0.49780 0.93650 0.54710 0.12900
H 	H 	0.64310 0.88060 0.60280 0.13400
H 	H 	0.24770 0.71270 0.07190 0.00500
H 	H 	0.44720 0.60310 0.05830 0.04400
H 	H 	0.98880 0.69590 0.97090 0.05800
H 	H 	0.80960 0.80520 0.99240 0.07200
H 	H 	0.95120 0.43900 0.91200 -0.00300
H 	H 	0.65460 0.52120 0.86920 0.12700
H 	H 	0.49780 0.54710 0.93650 0.12900
H 	H 	0.64310 0.60280 0.88060 0.13400
H 	H 	0.75230 0.92810 0.28730 -0.05200
H 	H 	0.55280 0.94170 0.39690 0.16100
H 	H 	0.01120 0.02910 0.30410 0.16100
H 	H 	0.19040 0.00760 0.19480 -0.11600
H 	H 	0.04880 0.08800 0.56100 0.12000
H 	H 	0.34540 0.13080 0.47880 0.19300
H 	H 	0.50220 0.06350 0.45290 0.20200
H 	H 	0.35690 0.11940 0.39720 0.19400
C 	C 	0.62620 0.15700 0.96560 0.61600
C 	C 	0.50070 0.22850 0.97070 -0.40900
C 	C 	0.59840 0.28910 0.94910 0.33100
C 	C 	0.47710 0.35470 0.95710 -0.40400
C 	C 	0.25830 0.36260 0.98560 0.37800
C 	C 	0.16320 0.30170 0.00630 -0.47900
C 	C 	0.27210 0.23580 0.99660 0.38600
C 	C 	0.12560 0.43370 0.99330 -0.31300
C 	C 	0.15490 0.46940 0.04840 0.26800
C 	C 	0.02610 0.53590 0.05150 -0.34900
C 	C 	0.35890 0.44760 0.09480 -0.61400
C 	C 	0.37380 0.03440 0.84300 0.51900
C 	C 	0.49930 0.02930 0.77150 -0.16700
C 	C 	0.40160 0.05090 0.71090 0.05100
C 	C 	0.52290 0.04290 0.64530 -0.08700
C 	C 	0.74170 0.01440 0.63740 -0.03000
C 	C 	0.83680 0.99370 0.69830 -0.00500
C 	C 	0.72790 0.00340 0.76420 -0.02200
C 	C 	0.87440 0.00670 0.56630 0.13300
C 	C 	0.84510 0.95160 0.53060 -0.01000
C 	C 	0.97390 0.94850 0.46410 0.14100
C 	C 	0.64110 0.90520 0.55240 -0.36900
C 	C 	0.37380 0.84300 0.03440 0.51900
C 	C 	0.49930 0.77150 0.02930 -0.16700
C 	C 	0.40160 0.71090 0.05090 0.05100
C 	C 	0.52290 0.64530 0.04290 -0.08700
C 	C 	0.74170 0.63740 0.01440 -0.03000
C 	C 	0.83680 0.69830 0.99370 -0.00500
C 	C 	0.72790 0.76420 0.00340 -0.02200
C 	C 	0.87440 0.56630 0.00670 0.13300
C 	C 	0.84510 0.53060 0.95160 -0.01000
C 	C 	0.97390 0.46410 0.94850 0.14100
C 	C 	0.64110 0.55240 0.90520 -0.36900
C 	C 	0.62620 0.96560 0.15700 0.61600
C 	C 	0.50070 0.97070 0.22850 -0.40900
C 	C 	0.59840 0.94910 0.28910 0.33100
C 	C 	0.47710 0.95710 0.35470 -0.40400
C 	C 	0.25830 0.98560 0.36260 0.37800
C 	C 	0.16320 0.00630 0.30170 -0.47900
C 	C 	0.27210 0.99660 0.23580 0.38600
C 	C 	0.12560 0.99330 0.43370 -0.31300
C 	C 	0.15490 0.04840 0.46940 0.26800
C 	C 	0.02610 0.05150 0.53590 -0.34900
C 	C 	0.35890 0.09480 0.44760 -0.61400
O 	O 	0.54030 0.10380 0.98700 -0.57100
O 	O 	0.82670 0.15352 0.93960 -0.51300
O 	O 	0.45970 0.01300 0.89620 -0.55700
O 	O 	0.17330 0.06040 0.84648 -0.55300
O 	O 	0.45970 0.89620 0.01300 -0.55700
O 	O 	0.17330 0.84648 0.06040 -0.55300
O 	O 	0.54030 0.98700 0.10380 -0.57100
O 	O 	0.82670 0.93960 0.15352 -0.51300
O 	O 	0.16270 0.02831 0.02831 -0.67100
O 	O 	0.83730 0.97169 0.97169 -0.58400
