data_crystal

_cell_length_a 18.38900
_cell_length_b 18.38900
_cell_length_c 19.12900
_cell_angle_alpha 90.00000
_cell_angle_beta  90.00000
_cell_angle_gamma 90.00000

_symmetry_space_group_name_	'P 1'
_symmetry_space_group_name_H-M	'P 1'

loop_
_symmetry_equiv_pos_as_xyz
  x,y,z

loop_
_atom_site_label
_atom_site_type_symbol
_atom_site_fract_x
_atom_site_fract_y
_atom_site_fract_z
_atom_site_charge
Zn	Zn	0.68429 0.11813 0.40694 1.17100
Zn	Zn	0.63187 0.93429 0.65694 1.17000
Zn	Zn	0.18429 0.61813 0.90694 1.17000
Zn	Zn	0.13187 0.43429 0.15694 1.17100
Zn	Zn	0.36813 0.56571 0.65694 1.17100
Zn	Zn	0.81571 0.88187 0.90694 1.17000
Zn	Zn	0.86813 0.06571 0.15694 1.17000
Zn	Zn	0.31571 0.38187 0.40694 1.17100
Zn	Zn	0.31571 0.88187 0.59306 1.17100
Zn	Zn	0.36813 0.06571 0.34306 1.17000
Zn	Zn	0.81571 0.38187 0.09306 1.17000
Zn	Zn	0.86813 0.56571 0.84306 1.17100
Zn	Zn	0.63187 0.43429 0.34306 1.17100
Zn	Zn	0.18429 0.11813 0.09306 1.17000
Zn	Zn	0.13187 0.93429 0.84306 1.17100
Zn	Zn	0.68429 0.61813 0.59306 1.17200
H 	H 	0.61080 0.01600 0.51410 -0.07100
H 	H 	0.73400 0.86080 0.76410 -0.07100
H 	H 	0.11080 0.51600 0.01410 -0.07100
H 	H 	0.23400 0.36080 0.26410 -0.07100
H 	H 	0.26600 0.63920 0.76410 -0.07100
H 	H 	0.88920 0.98400 0.01410 -0.07000
H 	H 	0.76600 0.13920 0.26410 -0.07100
H 	H 	0.38920 0.48400 0.51410 -0.07100
H 	H 	0.38920 0.98400 0.48590 -0.07100
H 	H 	0.26600 0.13920 0.23590 -0.07100
H 	H 	0.88920 0.48400 0.98590 -0.07100
H 	H 	0.76600 0.63920 0.73590 -0.07100
H 	H 	0.73400 0.36080 0.23590 -0.07100
H 	H 	0.11080 0.01600 0.98590 -0.07000
H 	H 	0.23400 0.86080 0.73590 -0.07100
H 	H 	0.61080 0.51600 0.48590 -0.07100
H 	H 	0.79470 0.11090 0.54010 -0.00200
H 	H 	0.63910 0.04470 0.79010 -0.00400
H 	H 	0.29470 0.61090 0.04010 -0.00100
H 	H 	0.13910 0.54470 0.29010 -0.00200
H 	H 	0.36090 0.45530 0.79010 -0.00100
H 	H 	0.70530 0.88910 0.04010 -0.00100
H 	H 	0.86090 0.95530 0.29010 -0.00400
H 	H 	0.20530 0.38910 0.54010 -0.00200
H 	H 	0.20530 0.88910 0.45990 -0.00200
H 	H 	0.36090 0.95530 0.20990 -0.00400
H 	H 	0.70530 0.38910 0.95990 -0.00100
H 	H 	0.86090 0.45530 0.70990 -0.00200
H 	H 	0.63910 0.54470 0.20990 -0.00100
H 	H 	0.29470 0.11090 0.95990 -0.00100
H 	H 	0.13910 0.04470 0.70990 -0.00400
H 	H 	0.79470 0.61090 0.45990 -0.00200
H 	H 	0.76680 0.04580 0.64520 -0.00200
H 	H 	0.70420 0.01680 0.89520 0.00300
H 	H 	0.26680 0.54580 0.14520 -0.00200
H 	H 	0.20420 0.51680 0.39520 -0.00200
H 	H 	0.29580 0.48320 0.89520 -0.00200
H 	H 	0.73320 0.95420 0.14520 -0.00200
H 	H 	0.79580 0.98320 0.39520 0.00100
H 	H 	0.23320 0.45420 0.64520 -0.00200
H 	H 	0.23320 0.95420 0.35480 -0.00200
H 	H 	0.29580 0.98320 0.10480 0.00300
H 	H 	0.73320 0.45420 0.85480 -0.00200
H 	H 	0.79580 0.48320 0.60480 -0.00200
H 	H 	0.70420 0.51680 0.10480 -0.00200
H 	H 	0.26680 0.04580 0.85480 -0.00200
H 	H 	0.20420 0.01680 0.60480 0.00100
H 	H 	0.76680 0.54580 0.35480 -0.00200
H 	H 	0.51140 0.13740 0.40670 -0.07400
H 	H 	0.61260 0.76140 0.65670 -0.07400
H 	H 	0.01140 0.63740 0.90670 -0.07400
H 	H 	0.11260 0.26140 0.15670 -0.07400
H 	H 	0.38740 0.73860 0.65670 -0.07400
H 	H 	0.98860 0.86260 0.90670 -0.07400
H 	H 	0.88740 0.23860 0.15670 -0.07400
H 	H 	0.48860 0.36260 0.40670 -0.07400
H 	H 	0.48860 0.86260 0.59330 -0.07400
H 	H 	0.38740 0.23860 0.34330 -0.07400
H 	H 	0.98860 0.36260 0.09330 -0.07400
H 	H 	0.88740 0.73860 0.84330 -0.07400
H 	H 	0.61260 0.26140 0.34330 -0.07400
H 	H 	0.01140 0.13740 0.09330 -0.07400
H 	H 	0.11260 0.76140 0.84330 -0.07400
H 	H 	0.51140 0.63740 0.59330 -0.07400
H 	H 	0.62660 0.99660 0.31090 -0.00800
H 	H 	0.75340 0.87660 0.56090 -0.00900
H 	H 	0.12660 0.49660 0.81090 -0.00900
H 	H 	0.25340 0.37660 0.06090 -0.00900
H 	H 	0.24660 0.62340 0.56090 -0.00900
H 	H 	0.87340 0.00340 0.81090 -0.00700
H 	H 	0.74660 0.12340 0.06090 -0.01000
H 	H 	0.37340 0.50340 0.31090 -0.00900
H 	H 	0.37340 0.00340 0.68910 -0.00800
H 	H 	0.24660 0.12340 0.43910 -0.00900
H 	H 	0.87340 0.50340 0.18910 -0.00900
H 	H 	0.74660 0.62340 0.93910 -0.00900
H 	H 	0.75340 0.37660 0.43910 -0.00900
H 	H 	0.12660 0.99660 0.18910 -0.00700
H 	H 	0.25340 0.87660 0.93910 -0.01000
H 	H 	0.62660 0.49660 0.68910 -0.00900
H 	H 	0.49730 0.97430 0.27870 -0.00100
H 	H 	0.77570 0.74730 0.52870 -0.00200
H 	H 	0.99730 0.47430 0.77870 -0.00200
H 	H 	0.27570 0.24730 0.02870 -0.00300
H 	H 	0.22430 0.75270 0.52870 -0.00200
H 	H 	0.00270 0.02570 0.77870 -0.00000
H 	H 	0.72430 0.25270 0.02870 -0.00300
H 	H 	0.50270 0.52570 0.27870 -0.00200
H 	H 	0.50270 0.02570 0.72130 -0.00100
H 	H 	0.22430 0.25270 0.47130 -0.00200
H 	H 	0.00270 0.52570 0.22130 -0.00200
H 	H 	0.72430 0.75270 0.97130 -0.00300
H 	H 	0.77570 0.24730 0.47130 -0.00200
H 	H 	0.99730 0.97430 0.22130 -0.00000
H 	H 	0.27570 0.74730 0.97130 -0.00300
H 	H 	0.49730 0.47430 0.72130 -0.00200
C 	C 	0.65320 0.03350 0.53470 0.11100
C 	C 	0.71650 0.90320 0.78470 0.11100
C 	C 	0.15320 0.53350 0.03470 0.11200
C 	C 	0.21650 0.40320 0.28470 0.11200
C 	C 	0.28350 0.59680 0.78470 0.11100
C 	C 	0.84680 0.96650 0.03470 0.11200
C 	C 	0.78350 0.09680 0.28470 0.11100
C 	C 	0.34680 0.46650 0.53470 0.11200
C 	C 	0.34680 0.96650 0.46530 0.11100
C 	C 	0.28350 0.09680 0.21530 0.11100
C 	C 	0.84680 0.46650 0.96530 0.11200
C 	C 	0.78350 0.59680 0.71530 0.11200
C 	C 	0.71650 0.40320 0.21530 0.11100
C 	C 	0.15320 0.03350 0.96530 0.11200
C 	C 	0.21650 0.90320 0.71530 0.11100
C 	C 	0.65320 0.53350 0.46530 0.11200
C 	C 	0.75220 0.08480 0.54820 -0.01100
C 	C 	0.66520 0.00220 0.79820 -0.00200
C 	C 	0.25220 0.58480 0.04820 -0.01100
C 	C 	0.16520 0.50220 0.29820 -0.01100
C 	C 	0.33480 0.49780 0.79820 -0.01100
C 	C 	0.74780 0.91520 0.04820 -0.01100
C 	C 	0.83480 0.99780 0.29820 -0.00400
C 	C 	0.24780 0.41520 0.54820 -0.01100
C 	C 	0.24780 0.91520 0.45180 -0.01100
C 	C 	0.33480 0.99780 0.20180 -0.00200
C 	C 	0.74780 0.41520 0.95180 -0.01100
C 	C 	0.83480 0.49780 0.70180 -0.01100
C 	C 	0.66520 0.50220 0.20180 -0.01100
C 	C 	0.25220 0.08480 0.95180 -0.01100
C 	C 	0.16520 0.00220 0.70180 -0.00400
C 	C 	0.75220 0.58480 0.45180 -0.01100
C 	C 	0.73740 0.04770 0.60570 -0.00600
C 	C 	0.70230 0.98740 0.85570 -0.01800
C 	C 	0.23740 0.54770 0.10570 -0.00600
C 	C 	0.20230 0.48740 0.35570 -0.00600
C 	C 	0.29770 0.51260 0.85570 -0.00600
C 	C 	0.76260 0.95230 0.10570 -0.00600
C 	C 	0.79770 0.01260 0.35570 -0.01300
C 	C 	0.26260 0.45230 0.60570 -0.00600
C 	C 	0.26260 0.95230 0.39430 -0.00600
C 	C 	0.29770 0.01260 0.14430 -0.01800
C 	C 	0.76260 0.45230 0.89430 -0.00600
C 	C 	0.79770 0.51260 0.64430 -0.00600
C 	C 	0.70230 0.48740 0.14430 -0.00600
C 	C 	0.23740 0.04770 0.89430 -0.00600
C 	C 	0.20230 0.98740 0.64430 -0.01300
C 	C 	0.73740 0.54770 0.39430 -0.00600
C 	C 	0.52440 0.09940 0.37710 0.12000
C 	C 	0.65060 0.77440 0.62710 0.12000
C 	C 	0.02440 0.59940 0.87710 0.12000
C 	C 	0.15060 0.27440 0.12710 0.12000
C 	C 	0.34940 0.72560 0.62710 0.12000
C 	C 	0.97560 0.90060 0.87710 0.12000
C 	C 	0.84940 0.22560 0.12710 0.12000
C 	C 	0.47560 0.40060 0.37710 0.12000
C 	C 	0.47560 0.90060 0.62290 0.12000
C 	C 	0.34940 0.22560 0.37290 0.12000
C 	C 	0.97560 0.40060 0.12290 0.12000
C 	C 	0.84940 0.72560 0.87290 0.12000
C 	C 	0.65060 0.27440 0.37290 0.12000
C 	C 	0.02440 0.09940 0.12290 0.12000
C 	C 	0.15060 0.77440 0.87290 0.12000
C 	C 	0.52440 0.59940 0.62290 0.12000
C 	C 	0.58710 0.02410 0.32600 -0.00100
C 	C 	0.72590 0.83710 0.57600 0.00100
C 	C 	0.08710 0.52410 0.82600 0.00100
C 	C 	0.22590 0.33710 0.07600 0.00100
C 	C 	0.27410 0.66290 0.57600 0.00100
C 	C 	0.91290 0.97590 0.82600 -0.00200
C 	C 	0.77410 0.16290 0.07600 0.00100
C 	C 	0.41290 0.47590 0.32600 0.00100
C 	C 	0.41290 0.97590 0.67400 -0.00100
C 	C 	0.27410 0.16290 0.42400 0.00100
C 	C 	0.91290 0.47590 0.17400 0.00100
C 	C 	0.77410 0.66290 0.92400 0.00100
C 	C 	0.72590 0.33710 0.42400 0.00100
C 	C 	0.08710 0.02410 0.17400 -0.00200
C 	C 	0.22590 0.83710 0.92400 0.00100
C 	C 	0.58710 0.52410 0.67400 0.00100
C 	C 	0.51470 0.01050 0.30830 -0.02400
C 	C 	0.73950 0.76470 0.55830 -0.02200
C 	C 	0.01470 0.51050 0.80830 -0.02200
C 	C 	0.23950 0.26470 0.05830 -0.02200
C 	C 	0.26050 0.73530 0.55830 -0.02200
C 	C 	0.98530 0.98950 0.80830 -0.02400
C 	C 	0.76050 0.23530 0.05830 -0.02200
C 	C 	0.48530 0.48950 0.30830 -0.02200
C 	C 	0.48530 0.98950 0.69170 -0.02400
C 	C 	0.26050 0.23530 0.44170 -0.02200
C 	C 	0.98530 0.48950 0.19170 -0.02200
C 	C 	0.76050 0.73530 0.94170 -0.02200
C 	C 	0.73950 0.26470 0.44170 -0.02200
C 	C 	0.01470 0.01050 0.19170 -0.02400
C 	C 	0.23950 0.76470 0.94170 -0.02200
C 	C 	0.51470 0.51050 0.69170 -0.02200
N 	N 	0.69530 0.07880 0.50250 -0.30000
N 	N 	0.67120 0.94530 0.75250 -0.30200
N 	N 	0.19530 0.57880 0.00250 -0.30000
N 	N 	0.17120 0.44530 0.25250 -0.30000
N 	N 	0.32880 0.55470 0.75250 -0.30000
N 	N 	0.80470 0.92120 0.00250 -0.29900
N 	N 	0.82880 0.05470 0.25250 -0.30200
N 	N 	0.30470 0.42120 0.50250 -0.30000
N 	N 	0.30470 0.92120 0.49750 -0.30000
N 	N 	0.32880 0.05470 0.24750 -0.30200
N 	N 	0.80470 0.42120 0.99750 -0.30000
N 	N 	0.82880 0.55470 0.74750 -0.30000
N 	N 	0.67120 0.44530 0.24750 -0.30000
N 	N 	0.19530 0.07880 0.99750 -0.29900
N 	N 	0.17120 0.94530 0.74750 -0.30200
N 	N 	0.69530 0.57880 0.49750 -0.30000
N 	N 	0.67310 0.01290 0.59840 -0.29700
N 	N 	0.73710 0.92310 0.84840 -0.29600
N 	N 	0.17310 0.51290 0.09840 -0.29800
N 	N 	0.23710 0.42310 0.34840 -0.29800
N 	N 	0.26290 0.57690 0.84840 -0.29800
N 	N 	0.82690 0.98710 0.09840 -0.29700
N 	N 	0.76290 0.07690 0.34840 -0.29700
N 	N 	0.32690 0.48710 0.59840 -0.29800
N 	N 	0.32690 0.98710 0.40160 -0.29700
N 	N 	0.26290 0.07690 0.15160 -0.29600
N 	N 	0.82690 0.48710 0.90160 -0.29800
N 	N 	0.76290 0.57690 0.65160 -0.29800
N 	N 	0.73710 0.42310 0.15160 -0.29800
N 	N 	0.17310 0.01290 0.90160 -0.29700
N 	N 	0.23710 0.92310 0.65160 -0.29700
N 	N 	0.67310 0.51290 0.40160 -0.29800
N 	N 	0.59170 0.08140 0.36720 -0.30400
N 	N 	0.66860 0.84170 0.61720 -0.30400
N 	N 	0.09170 0.58140 0.86720 -0.30400
N 	N 	0.16860 0.34170 0.11720 -0.30400
N 	N 	0.33140 0.65830 0.61720 -0.30400
N 	N 	0.90830 0.91860 0.86720 -0.30400
N 	N 	0.83140 0.15830 0.11720 -0.30500
N 	N 	0.40830 0.41860 0.36720 -0.30400
N 	N 	0.40830 0.91860 0.63280 -0.30400
N 	N 	0.33140 0.15830 0.38280 -0.30400
N 	N 	0.90830 0.41860 0.13280 -0.30400
N 	N 	0.83140 0.65830 0.88280 -0.30400
N 	N 	0.66860 0.34170 0.38280 -0.30400
N 	N 	0.09170 0.08140 0.13280 -0.30400
N 	N 	0.16860 0.84170 0.88280 -0.30500
N 	N 	0.59170 0.58140 0.63280 -0.30400
N 	N 	0.47530 0.06080 0.34310 -0.30200
N 	N 	0.68920 0.72530 0.59310 -0.30200
N 	N 	0.97530 0.56080 0.84310 -0.30200
N 	N 	0.18920 0.22530 0.09310 -0.30200
N 	N 	0.31080 0.77470 0.59310 -0.30200
N 	N 	0.02470 0.93920 0.84310 -0.30300
N 	N 	0.81080 0.27470 0.09310 -0.30200
N 	N 	0.52470 0.43920 0.34310 -0.30200
N 	N 	0.52470 0.93920 0.65690 -0.30200
N 	N 	0.31080 0.27470 0.40690 -0.30200
N 	N 	0.02470 0.43920 0.15690 -0.30200
N 	N 	0.81080 0.77470 0.90690 -0.30200
N 	N 	0.68920 0.22530 0.40690 -0.30200
N 	N 	0.97530 0.06080 0.15690 -0.30300
N 	N 	0.18920 0.72530 0.90690 -0.30200
N 	N 	0.47530 0.56080 0.65690 -0.30200
