data_crystal

_cell_length_a 11.21840
_cell_length_b 17.92180
_cell_length_c 17.92180
_cell_angle_alpha 90.00000
_cell_angle_beta  90.00000
_cell_angle_gamma 90.00000

_symmetry_space_group_name_	'P 1'
_symmetry_space_group_name_H-M	'P 1'

loop_
_symmetry_equiv_pos_as_xyz
  x,y,z

loop_
_atom_site_label
_atom_site_type_symbol
_atom_site_fract_x
_atom_site_fract_y
_atom_site_fract_z
_atom_site_charge
In	In	0.25000 0.18399 0.81601 1.99400
In	In	0.75000 0.81601 0.18399 1.99500
In	In	0.50000 0.68399 0.68399 1.99400
In	In	0.00000 0.31601 0.31601 1.98200
H 	H 	0.09410 0.24790 0.57080 0.13700
H 	H 	0.78020 0.35470 0.53920 0.10400
H 	H 	0.87310 0.28610 0.74660 0.12100
H 	H 	0.59410 0.75210 0.42920 0.08700
H 	H 	0.28020 0.64530 0.46080 0.08000
H 	H 	0.37310 0.71390 0.25340 0.08300
H 	H 	0.34410 0.92920 0.74790 0.07400
H 	H 	0.03020 0.96080 0.85470 0.05000
H 	H 	0.12310 0.75340 0.78610 0.05400
H 	H 	0.84410 0.07080 0.25210 0.08900
H 	H 	0.53020 0.03920 0.14530 0.07700
H 	H 	0.62310 0.24660 0.21390 0.08100
H 	H 	0.15590 0.25210 0.07080 0.07300
H 	H 	0.46980 0.14530 0.03920 0.07800
H 	H 	0.37690 0.21390 0.24660 0.07600
H 	H 	0.65590 0.74790 0.92920 0.08700
H 	H 	0.96980 0.85470 0.96080 0.10400
H 	H 	0.87690 0.78610 0.75340 0.10300
H 	H 	0.90590 0.57080 0.24790 0.02500
H 	H 	0.21980 0.53920 0.35470 0.05100
H 	H 	0.12690 0.74660 0.28610 0.03600
H 	H 	0.40590 0.42920 0.75210 0.07600
H 	H 	0.71980 0.46080 0.64530 0.07500
H 	H 	0.62690 0.25340 0.71390 0.07400
C 	C 	0.96360 0.30598 0.46100 0.30000
C 	C 	0.80717 0.32349 0.64740 0.09700
C 	C 	0.08750 0.22978 0.71949 0.19900
C 	C 	0.94010 0.30066 0.54303 0.09200
C 	C 	0.99630 0.26116 0.66677 0.14600
C 	C 	0.02141 0.26705 0.59011 -0.21800
C 	C 	0.83430 0.33001 0.57161 -0.12300
C 	C 	0.88965 0.28972 0.69472 -0.14200
C 	C 	0.46360 0.69402 0.53900 0.28000
C 	C 	0.30717 0.67651 0.35260 0.05500
C 	C 	0.58750 0.77022 0.28051 0.28300
C 	C 	0.44010 0.69934 0.45697 -0.01900
C 	C 	0.49630 0.73884 0.33323 -0.01800
C 	C 	0.52141 0.73295 0.40989 -0.02500
C 	C 	0.33430 0.66999 0.42839 -0.06600
C 	C 	0.38965 0.71028 0.30528 -0.06500
C 	C 	0.21360 0.03900 0.80598 0.29100
C 	C 	0.05717 0.85260 0.82349 -0.05800
C 	C 	0.33750 0.78051 0.72978 0.29400
C 	C 	0.19010 0.95697 0.80066 -0.05500
C 	C 	0.24630 0.83323 0.76116 -0.05300
C 	C 	0.27141 0.90989 0.76705 0.00400
C 	C 	0.08430 0.92839 0.83001 -0.00900
C 	C 	0.13965 0.80528 0.78972 -0.00800
C 	C 	0.71360 0.96100 0.19402 0.28200
C 	C 	0.55717 0.14740 0.17651 0.02900
C 	C 	0.83750 0.21949 0.27022 0.28400
C 	C 	0.69010 0.04303 0.19934 -0.02300
C 	C 	0.74630 0.16677 0.23884 -0.02000
C 	C 	0.77141 0.09011 0.23295 -0.01900
C 	C 	0.58430 0.07161 0.16999 -0.05000
C 	C 	0.63965 0.19472 0.21028 -0.04900
C 	C 	0.28640 0.19402 0.96100 0.28600
C 	C 	0.44283 0.17651 0.14740 0.02100
C 	C 	0.16250 0.27022 0.21949 0.28900
C 	C 	0.30990 0.19934 0.04303 -0.03400
C 	C 	0.25370 0.23884 0.16677 -0.03500
C 	C 	0.22859 0.23295 0.09011 -0.01300
C 	C 	0.41570 0.16999 0.07161 -0.04500
C 	C 	0.36035 0.21028 0.19472 -0.04400
C 	C 	0.78640 0.80598 0.03900 0.27700
C 	C 	0.94283 0.82349 0.85260 0.10800
C 	C 	0.66250 0.72978 0.78051 0.28000
C 	C 	0.80990 0.80066 0.95697 -0.00300
C 	C 	0.75370 0.76116 0.83323 -0.00200
C 	C 	0.72859 0.76705 0.90989 -0.03600
C 	C 	0.91570 0.83001 0.92839 -0.08600
C 	C 	0.86035 0.78972 0.80528 -0.08600
C 	C 	0.03640 0.46100 0.30598 0.26700
C 	C 	0.19283 0.64740 0.32349 -0.04800
C 	C 	0.91250 0.71949 0.22978 0.37600
C 	C 	0.05990 0.54303 0.30066 -0.15000
C 	C 	0.00370 0.66677 0.26116 -0.20200
C 	C 	0.97859 0.59011 0.26705 0.18800
C 	C 	0.16570 0.57161 0.33001 0.02900
C 	C 	0.11035 0.69472 0.28972 0.04900
C 	C 	0.53640 0.53900 0.69402 0.28700
C 	C 	0.69283 0.35260 0.67651 -0.00400
C 	C 	0.41250 0.28051 0.77022 0.29000
C 	C 	0.55990 0.45697 0.69934 -0.03700
C 	C 	0.50370 0.33323 0.73884 -0.03700
C 	C 	0.47859 0.40989 0.73295 -0.00700
C 	C 	0.66570 0.42839 0.66999 -0.02900
C 	C 	0.61035 0.30528 0.71028 -0.02900
O 	O 	0.88997 0.33857 0.41958 -0.42300
O 	O 	0.07217 0.23744 0.78889 -0.41500
O 	O 	0.05811 0.27727 0.43361 -0.44000
O 	O 	0.18056 0.19798 0.69514 -0.39500
O 	O 	0.38997 0.66143 0.58042 -0.43400
O 	O 	0.57217 0.76256 0.21111 -0.41900
O 	O 	0.55811 0.72273 0.56639 -0.39900
O 	O 	0.68056 0.80202 0.30486 -0.40500
O 	O 	0.13997 0.08042 0.83857 -0.44200
O 	O 	0.32217 0.71111 0.73744 -0.42700
O 	O 	0.30811 0.06639 0.77727 -0.40600
O 	O 	0.43056 0.80486 0.69798 -0.41200
O 	O 	0.63997 0.91958 0.16143 -0.43100
O 	O 	0.82217 0.28889 0.26256 -0.40700
O 	O 	0.80811 0.93361 0.22273 -0.39400
O 	O 	0.93056 0.19514 0.30202 -0.38700
O 	O 	0.36003 0.16143 0.91958 -0.43100
O 	O 	0.17783 0.26256 0.28889 -0.42900
O 	O 	0.19189 0.22273 0.93361 -0.41100
O 	O 	0.06944 0.30202 0.19514 -0.43000
O 	O 	0.86003 0.83857 0.08042 -0.42000
O 	O 	0.67783 0.73744 0.71111 -0.41300
O 	O 	0.69189 0.77727 0.06639 -0.40000
O 	O 	0.56944 0.69798 0.80486 -0.40800
O 	O 	0.11003 0.41958 0.33857 -0.43600
O 	O 	0.92783 0.78889 0.23744 -0.42500
O 	O 	0.94189 0.43361 0.27727 -0.36300
O 	O 	0.81944 0.69514 0.19798 -0.42500
O 	O 	0.61003 0.58042 0.66143 -0.42900
O 	O 	0.42783 0.21111 0.76256 -0.42000
O 	O 	0.44189 0.56639 0.72273 -0.40600
O 	O 	0.31944 0.30486 0.80202 -0.41400
