data_crystal

_cell_length_a 12.83000
_cell_length_b 13.79500
_cell_length_c 18.81500
_cell_angle_alpha 90.04100
_cell_angle_beta  90.00000
_cell_angle_gamma 90.00000

_symmetry_space_group_name_	'P 1'
_symmetry_space_group_name_H-M	'P 1'

loop_
_symmetry_equiv_pos_as_xyz
  x,y,z

loop_
_atom_site_label
_atom_site_type_symbol
_atom_site_fract_x
_atom_site_fract_y
_atom_site_fract_z
_atom_site_charge
Al	Al	0.95960 0.88950 0.83450 2.39200
Al	Al	0.95960 0.11050 0.66550 2.39300
Al	Al	0.45960 0.38950 0.83450 2.39300
Al	Al	0.45960 0.61050 0.66550 2.39300
Al	Al	0.04040 0.11050 0.16550 2.39200
Al	Al	0.04040 0.88950 0.33450 2.39300
Al	Al	0.54040 0.61050 0.16550 2.39300
Al	Al	0.54040 0.38950 0.33450 2.39300
Al	Al	0.77460 0.11720 0.93850 2.39300
Al	Al	0.77460 0.88280 0.56150 2.39400
Al	Al	0.27460 0.61720 0.93850 2.39500
Al	Al	0.27460 0.38280 0.56150 2.39500
Al	Al	0.22540 0.88280 0.06150 2.39400
Al	Al	0.22540 0.11720 0.43850 2.39500
Al	Al	0.72540 0.38280 0.06150 2.39500
Al	Al	0.72540 0.61720 0.43850 2.39500
Al	Al	0.09610 0.22670 0.95050 2.39300
Al	Al	0.09610 0.77330 0.54950 2.39300
Al	Al	0.59610 0.72670 0.95050 2.39300
Al	Al	0.59610 0.27330 0.54950 2.39300
Al	Al	0.90390 0.77330 0.04950 2.39300
Al	Al	0.90390 0.22670 0.45050 2.39300
Al	Al	0.40390 0.27330 0.04950 2.39300
Al	Al	0.40390 0.72670 0.45050 2.39300
P 	P 	0.09630 0.77220 0.94460 0.83400
P 	P 	0.09630 0.22780 0.55540 0.83400
P 	P 	0.59630 0.27220 0.94460 0.83400
P 	P 	0.59630 0.72780 0.55540 0.83400
P 	P 	0.90370 0.22780 0.05540 0.83400
P 	P 	0.90370 0.77220 0.44460 0.83400
P 	P 	0.40370 0.72780 0.05540 0.83400
P 	P 	0.40370 0.27220 0.44460 0.83400
P 	P 	0.76760 0.88870 0.93820 0.83400
P 	P 	0.76760 0.11130 0.56180 0.83600
P 	P 	0.26760 0.38870 0.93820 0.83700
P 	P 	0.26760 0.61130 0.56180 0.83600
P 	P 	0.23240 0.11130 0.06180 0.83400
P 	P 	0.23240 0.88870 0.43820 0.83600
P 	P 	0.73240 0.61130 0.06180 0.83700
P 	P 	0.73240 0.38870 0.43820 0.83600
P 	P 	0.96430 0.11870 0.83330 0.81900
P 	P 	0.96430 0.88130 0.66670 0.82100
P 	P 	0.46430 0.61870 0.83330 0.82300
P 	P 	0.46430 0.38130 0.66670 0.82300
P 	P 	0.03570 0.88130 0.16670 0.81900
P 	P 	0.03570 0.11870 0.33330 0.82100
P 	P 	0.53570 0.38130 0.16670 0.82300
P 	P 	0.53570 0.61870 0.33330 0.82300
C 	C 	0.96720 0.50550 0.55090 0.01800
C 	C 	0.96720 0.49450 0.94910 0.01400
C 	C 	0.46720 0.00550 0.55090 0.01700
C 	C 	0.46720 0.99450 0.94910 0.02000
C 	C 	0.03280 0.49450 0.44910 0.01800
C 	C 	0.03280 0.50550 0.05090 0.01400
C 	C 	0.53280 0.99450 0.44910 0.01700
C 	C 	0.53280 0.00550 0.05090 0.02000
C 	C 	0.74340 0.70600 0.74770 -0.01700
C 	C 	0.74340 0.29400 0.75230 -0.01700
C 	C 	0.24340 0.20600 0.74770 -0.01600
C 	C 	0.24340 0.79400 0.75230 -0.01600
C 	C 	0.25660 0.29400 0.25230 -0.01700
C 	C 	0.25660 0.70600 0.24770 -0.01700
C 	C 	0.75660 0.79400 0.25230 -0.01600
C 	C 	0.75660 0.20600 0.24770 -0.01600
C 	C 	0.96980 0.57950 0.67310 -0.00100
C 	C 	0.96980 0.42050 0.82690 -0.00200
C 	C 	0.46980 0.07950 0.67310 -0.00100
C 	C 	0.46980 0.92050 0.82690 0.00100
C 	C 	0.03020 0.42050 0.32690 -0.00100
C 	C 	0.03020 0.57950 0.17310 -0.00200
C 	C 	0.53020 0.92050 0.32690 -0.00100
C 	C 	0.53020 0.07950 0.17310 0.00100
C 	C 	0.85820 0.62410 0.68100 0.07800
C 	C 	0.85820 0.37590 0.81900 0.07700
C 	C 	0.35820 0.12410 0.68100 0.07800
C 	C 	0.35820 0.87590 0.81900 0.07800
C 	C 	0.14180 0.37590 0.31900 0.07800
C 	C 	0.14180 0.62410 0.18100 0.07700
C 	C 	0.64180 0.87590 0.31900 0.07800
C 	C 	0.64180 0.12410 0.18100 0.07800
C 	C 	0.90700 0.40610 0.65450 0.00600
C 	C 	0.90700 0.59390 0.84550 0.00400
C 	C 	0.40700 0.90610 0.65450 0.00600
C 	C 	0.40700 0.09390 0.84550 0.00600
C 	C 	0.09300 0.59390 0.34550 0.00600
C 	C 	0.09300 0.40610 0.15450 0.00400
C 	C 	0.59300 0.09390 0.34550 0.00600
C 	C 	0.59300 0.90610 0.15450 0.00600
C 	C 	0.91360 0.62120 0.76420 0.04300
C 	C 	0.91360 0.37880 0.73580 0.04300
C 	C 	0.41360 0.12120 0.76420 0.04300
C 	C 	0.41360 0.87880 0.73580 0.04300
C 	C 	0.08640 0.37880 0.23580 0.04300
C 	C 	0.08640 0.62120 0.26420 0.04300
C 	C 	0.58640 0.87880 0.23580 0.04300
C 	C 	0.58640 0.12120 0.26420 0.04300
C 	C 	0.81480 0.56340 0.80780 0.00900
C 	C 	0.81480 0.43660 0.69220 0.00800
C 	C 	0.31480 0.06340 0.80780 0.00700
C 	C 	0.31480 0.93660 0.69220 0.00900
C 	C 	0.18520 0.43660 0.19220 0.00900
C 	C 	0.18520 0.56340 0.30780 0.00800
C 	C 	0.68520 0.93660 0.19220 0.00700
C 	C 	0.68520 0.06340 0.30780 0.00900
C 	C 	0.75300 0.52930 0.71710 0.00500
C 	C 	0.75300 0.47070 0.78290 0.00500
C 	C 	0.25300 0.02930 0.71710 0.00400
C 	C 	0.25300 0.97070 0.78290 0.00800
C 	C 	0.24700 0.47070 0.28290 0.00500
C 	C 	0.24700 0.52930 0.21710 0.00500
C 	C 	0.74700 0.97070 0.28290 0.00400
C 	C 	0.74700 0.02930 0.21710 0.00800
C 	C 	0.72950 0.71170 0.75610 0.04300
C 	C 	0.72950 0.28830 0.74390 0.04300
C 	C 	0.22950 0.21170 0.75610 0.04300
C 	C 	0.22950 0.78830 0.74390 0.04300
C 	C 	0.27050 0.28830 0.24390 0.04300
C 	C 	0.27050 0.71170 0.25610 0.04300
C 	C 	0.77050 0.78830 0.24390 0.04300
C 	C 	0.77050 0.21170 0.25610 0.04300
N 	N 	0.97780 0.48710 0.62970 -0.10100
N 	N 	0.97780 0.51290 0.87030 -0.10100
N 	N 	0.47780 0.98710 0.62970 -0.10000
N 	N 	0.47780 0.01290 0.87030 -0.10200
N 	N 	0.02220 0.51290 0.37030 -0.10100
N 	N 	0.02220 0.48710 0.12970 -0.10100
N 	N 	0.52220 0.01290 0.37030 -0.10000
N 	N 	0.52220 0.98710 0.12970 -0.10200
N 	N 	0.82440 0.64850 0.75640 -0.06400
N 	N 	0.82440 0.35150 0.74360 -0.06400
N 	N 	0.32440 0.14850 0.75640 -0.06400
N 	N 	0.32440 0.85150 0.74360 -0.06400
N 	N 	0.17560 0.35150 0.24360 -0.06400
N 	N 	0.17560 0.64850 0.25640 -0.06400
N 	N 	0.67560 0.85150 0.24360 -0.06400
N 	N 	0.67560 0.14850 0.25640 -0.06400
N 	N 	0.81210 0.62450 0.72280 -0.10100
N 	N 	0.81210 0.37550 0.77720 -0.10000
N 	N 	0.31210 0.12450 0.72280 -0.10000
N 	N 	0.31210 0.87550 0.77720 -0.10100
N 	N 	0.18790 0.37550 0.27720 -0.10100
N 	N 	0.18790 0.62450 0.22280 -0.10000
N 	N 	0.68790 0.87550 0.27720 -0.10000
N 	N 	0.68790 0.12450 0.22280 -0.10100
O 	O 	0.04740 0.18030 0.86940 -0.76600
O 	O 	0.04740 0.81970 0.63060 -0.76800
O 	O 	0.54740 0.68030 0.86940 -0.77000
O 	O 	0.54740 0.31970 0.63060 -0.77000
O 	O 	0.95260 0.81970 0.13060 -0.76600
O 	O 	0.95260 0.18030 0.36940 -0.76800
O 	O 	0.45260 0.31970 0.13060 -0.77000
O 	O 	0.45260 0.68030 0.36940 -0.77000
O 	O 	0.82400 0.85950 0.00610 -0.84000
O 	O 	0.82400 0.14050 0.49390 -0.84100
O 	O 	0.32400 0.35950 0.00610 -0.84300
O 	O 	0.32400 0.64050 0.49390 -0.84100
O 	O 	0.17600 0.14050 0.99390 -0.84000
O 	O 	0.17600 0.85950 0.50610 -0.84100
O 	O 	0.67600 0.64050 0.99390 -0.84300
O 	O 	0.67600 0.35950 0.50610 -0.84100
O 	O 	0.73850 0.99470 0.94220 -0.78300
O 	O 	0.73850 0.00530 0.55780 -0.78300
O 	O 	0.23850 0.49470 0.94220 -0.78000
O 	O 	0.23850 0.50530 0.55780 -0.78200
O 	O 	0.26150 0.00530 0.05780 -0.78300
O 	O 	0.26150 0.99470 0.44220 -0.78300
O 	O 	0.76150 0.50530 0.05780 -0.78000
O 	O 	0.76150 0.49470 0.44220 -0.78200
O 	O 	0.16470 0.84660 0.98220 -0.84000
O 	O 	0.16470 0.15340 0.51780 -0.84300
O 	O 	0.66470 0.34660 0.98220 -0.84500
O 	O 	0.66470 0.65340 0.51780 -0.84200
O 	O 	0.83530 0.15340 0.01780 -0.84000
O 	O 	0.83530 0.84660 0.48220 -0.84300
O 	O 	0.33530 0.65340 0.01780 -0.84500
O 	O 	0.33530 0.34660 0.48220 -0.84200
O 	O 	0.05380 0.81680 0.87640 -0.77000
O 	O 	0.05380 0.18320 0.62360 -0.77200
O 	O 	0.55380 0.31680 0.87640 -0.77300
O 	O 	0.55380 0.68320 0.62360 -0.77300
O 	O 	0.94620 0.18320 0.12360 -0.77000
O 	O 	0.94620 0.81680 0.37640 -0.77200
O 	O 	0.44620 0.68320 0.12360 -0.77300
O 	O 	0.44620 0.31680 0.37640 -0.77300
O 	O 	0.99490 0.01240 0.84180 -0.84400
O 	O 	0.99490 0.98760 0.65820 -0.84100
O 	O 	0.49490 0.51240 0.84180 -0.84000
O 	O 	0.49490 0.48760 0.65820 -0.84000
O 	O 	0.00510 0.98760 0.15820 -0.84400
O 	O 	0.00510 0.01240 0.34180 -0.84100
O 	O 	0.50510 0.48760 0.15820 -0.84000
O 	O 	0.50510 0.51240 0.34180 -0.84000
O 	O 	0.85830 0.13770 0.86650 -0.82300
O 	O 	0.85830 0.86230 0.63350 -0.82200
O 	O 	0.35830 0.63770 0.86650 -0.82100
O 	O 	0.35830 0.36230 0.63350 -0.82200
O 	O 	0.14170 0.86230 0.13350 -0.82300
O 	O 	0.14170 0.13770 0.36650 -0.82200
O 	O 	0.64170 0.36230 0.13350 -0.82100
O 	O 	0.64170 0.63770 0.36650 -0.82200
O 	O 	0.66780 0.83190 0.92980 -0.76500
O 	O 	0.66780 0.16810 0.57020 -0.76500
O 	O 	0.16780 0.33190 0.92980 -0.76400
O 	O 	0.16780 0.66810 0.57020 -0.76500
O 	O 	0.33220 0.16810 0.07020 -0.76500
O 	O 	0.33220 0.83190 0.42980 -0.76500
O 	O 	0.83220 0.66810 0.07020 -0.76400
O 	O 	0.83220 0.33190 0.42980 -0.76500
O 	O 	0.95900 0.14710 0.75510 -0.76100
O 	O 	0.95900 0.85290 0.74490 -0.76100
O 	O 	0.45900 0.64710 0.75510 -0.76000
O 	O 	0.45900 0.35290 0.74490 -0.76000
O 	O 	0.04100 0.85290 0.24490 -0.76100
O 	O 	0.04100 0.14710 0.25510 -0.76100
O 	O 	0.54100 0.35290 0.24490 -0.76000
O 	O 	0.54100 0.64710 0.25510 -0.76000
O 	O 	0.16010 0.68370 0.92420 -0.75800
O 	O 	0.16010 0.31630 0.57580 -0.75900
O 	O 	0.66010 0.18370 0.92420 -0.76100
O 	O 	0.66010 0.81630 0.57580 -0.76000
O 	O 	0.83990 0.31630 0.07580 -0.75800
O 	O 	0.83990 0.68370 0.42420 -0.75900
O 	O 	0.33990 0.81630 0.07580 -0.76100
O 	O 	0.33990 0.18370 0.42420 -0.76000
O 	O 	0.83640 0.87000 0.87330 -0.82200
O 	O 	0.83640 0.13000 0.62670 -0.82200
O 	O 	0.33640 0.37000 0.87330 -0.82100
O 	O 	0.33640 0.63000 0.62670 -0.82100
O 	O 	0.16360 0.13000 0.12670 -0.82200
O 	O 	0.16360 0.87000 0.37330 -0.82200
O 	O 	0.66360 0.63000 0.12670 -0.82100
O 	O 	0.66360 0.37000 0.37330 -0.82100
O 	O 	0.00910 0.74000 0.99290 -0.81000
O 	O 	0.00910 0.26000 0.50710 -0.81400
O 	O 	0.50910 0.24000 0.99290 -0.81500
O 	O 	0.50910 0.76000 0.50710 -0.81400
O 	O 	0.99090 0.26000 0.00710 -0.81000
O 	O 	0.99090 0.74000 0.49290 -0.81400
O 	O 	0.49090 0.76000 0.00710 -0.81500
O 	O 	0.49090 0.24000 0.49290 -0.81400
