data_crystal

_cell_length_a 8.55050
_cell_length_b 9.10910
_cell_length_c 14.21130
_cell_angle_alpha 108.61700
_cell_angle_beta  90.00000
_cell_angle_gamma 117.99100

_symmetry_space_group_name_	'P 1'
_symmetry_space_group_name_H-M	'P 1'

loop_
_symmetry_equiv_pos_as_xyz
  x,y,z

loop_
_atom_site_label
_atom_site_type_symbol
_atom_site_fract_x
_atom_site_fract_y
_atom_site_fract_z
_atom_site_charge
Zn	Zn	0.29264 0.44558 0.86563 1.17500
Zn	Zn	0.40966 0.19028 0.97128 1.15000
Zn	Zn	0.84706 0.55442 0.63437 1.17500
Zn	Zn	0.21938 0.80972 0.52872 1.20700
Zn	Zn	0.70736 0.55442 0.13437 1.18400
Zn	Zn	0.59034 0.80972 0.02872 1.21000
Zn	Zn	0.15294 0.44558 0.36563 1.18400
Zn	Zn	0.78062 0.19028 0.47128 1.15400
Zn	Zn	0.12327 -0.00000 0.75000 1.12400
Zn	Zn	0.87673 0.00000 0.25000 1.12100
C 	C 	0.65750 0.63020 0.81900 0.14700
C 	C 	0.50550 0.32260 0.72490 0.13700
C 	C 	0.02730 0.36980 0.68100 0.15900
C 	C 	0.18290 0.67740 0.77510 0.15500
C 	C 	0.34250 0.36980 0.18100 0.14500
C 	C 	0.49450 0.67740 0.27510 0.15500
C 	C 	0.97270 0.63020 0.31900 0.13000
C 	C 	0.81710 0.32260 0.22490 0.13600
N 	N 	0.77930 0.68580 0.75850 -0.25200
N 	N 	0.88070 0.86380 0.80510 -0.14600
N 	N 	0.82930 0.91840 0.88850 -0.03800
N 	N 	0.69080 0.77680 0.89990 -0.25700
N 	N 	0.61670 0.33400 0.65610 -0.23700
N 	N 	0.54650 0.16760 0.58770 -0.17100
N 	N 	0.40240 0.06340 0.61550 -0.27300
N 	N 	0.37160 0.15600 0.70140 -0.28100
N 	N 	0.52200 0.46660 0.80590 -0.32300
N 	N 	0.09350 0.31420 0.74150 -0.26000
N 	N 	0.01690 0.13620 0.69490 -0.20100
N 	N 	0.91090 0.08160 0.61150 -0.14100
N 	N 	0.91400 0.22320 0.60010 -0.29200
N 	N 	0.28270 0.66600 0.84390 -0.23200
N 	N 	0.37890 0.83240 0.91230 -0.11700
N 	N 	0.33900 0.93660 0.88450 -0.15600
N 	N 	0.21560 0.84400 0.79860 -0.21900
N 	N 	0.05540 0.53340 0.69410 -0.31600
N 	N 	0.22070 0.31420 0.24150 -0.25500
N 	N 	0.11930 0.13620 0.19490 -0.20200
N 	N 	0.17070 0.08160 0.11150 -0.12000
N 	N 	0.30920 0.22320 0.10010 -0.27200
N 	N 	0.38330 0.66600 0.34390 -0.22800
N 	N 	0.45350 0.83240 0.41230 -0.11200
N 	N 	0.59760 0.93660 0.38450 -0.15400
N 	N 	0.62840 0.84400 0.29860 -0.22100
N 	N 	0.47800 0.53340 0.19410 -0.31700
N 	N 	0.90650 0.68580 0.25850 -0.24700
N 	N 	0.98310 0.86380 0.30510 -0.15100
N 	N 	0.08910 0.91840 0.38850 -0.01800
N 	N 	0.08600 0.77680 0.39990 -0.23800
N 	N 	0.71730 0.33400 0.15610 -0.23300
N 	N 	0.62110 0.16760 0.08770 -0.16400
N 	N 	0.66100 0.06340 0.11550 -0.26900
N 	N 	0.78440 0.15600 0.20140 -0.28200
N 	N 	0.94460 0.46660 0.30590 -0.32400
O 	O 	0.22610 0.20700 0.88840 -0.73100
O 	O 	0.36610 0.59960 0.01120 -0.57800
O 	O 	0.01910 0.79300 0.61160 -0.60700
O 	O 	0.76650 0.40040 0.48880 -0.62700
O 	O 	0.77390 0.79300 0.11160 -0.61800
O 	O 	0.63390 0.40040 0.98880 -0.63800
O 	O 	0.98090 0.20700 0.38840 -0.74000
O 	O 	0.23350 0.59960 0.51120 -0.59000
