data_crystal

_cell_length_a 10.50310
_cell_length_b 17.85900
_cell_length_c 17.85900
_cell_angle_alpha 120.00000
_cell_angle_beta  90.00000
_cell_angle_gamma 90.00000

_symmetry_space_group_name_	'P 1'
_symmetry_space_group_name_H-M	'P 1'

loop_
_symmetry_equiv_pos_as_xyz
  x,y,z

loop_
_atom_site_label
_atom_site_type_symbol
_atom_site_fract_x
_atom_site_fract_y
_atom_site_fract_z
_atom_site_charge
Zn	Zn	0.55949 0.54385 0.07006 1.20500
Zn	Zn	0.22616 0.52621 0.45615 1.20600
Zn	Zn	0.89282 0.92994 0.47379 1.20100
Zn	Zn	0.05949 0.45615 0.92994 1.20900
Zn	Zn	0.72616 0.47379 0.54385 1.20600
Zn	Zn	0.39282 0.07006 0.52621 1.20600
H 	H 	0.67180 0.36350 0.78420 0.58500
H 	H 	0.55740 0.36030 0.72630 0.58600
H 	H 	0.60260 0.27560 0.72410 0.60000
H 	H 	0.42000 0.32440 0.80580 -0.37300
H 	H 	0.55130 0.25970 0.85590 0.65800
H 	H 	0.48180 0.33620 0.93460 0.65000
H 	H 	0.62370 0.34660 0.91410 0.63000
H 	H 	0.44160 0.47150 0.84670 0.21800
H 	H 	0.66330 0.62010 0.97200 0.07300
H 	H 	0.51820 0.61820 0.95100 0.07300
H 	H 	0.80220 0.51570 0.83700 0.10500
H 	H 	0.47000 0.61270 0.81820 0.08200
H 	H 	0.52240 0.57450 0.67850 -0.04500
H 	H 	0.84570 0.47470 0.69710 -0.01400
H 	H 	0.65180 0.47450 0.92020 0.05500
H 	H 	0.33847 0.42070 0.63650 0.59800
H 	H 	0.22407 0.36600 0.63970 0.59800
H 	H 	0.26927 0.44850 0.72440 0.61200
H 	H 	0.08667 0.48140 0.67560 -0.37700
H 	H 	0.21797 0.59620 0.74030 0.67500
H 	H 	0.14847 0.59840 0.66380 0.66900
H 	H 	0.29037 0.56750 0.65340 0.64500
H 	H 	0.10827 0.37520 0.52850 0.22800
H 	H 	0.32997 0.35190 0.37990 0.07300
H 	H 	0.18487 0.33280 0.38180 0.07600
H 	H 	0.46887 0.32130 0.48430 0.10900
H 	H 	0.13667 0.20550 0.38730 0.08700
H 	H 	0.18907 0.10400 0.42550 -0.04100
H 	H 	0.51237 0.22240 0.52530 -0.00700
H 	H 	0.31847 0.44570 0.52550 0.05400
H 	H 	0.00513 0.21580 0.57930 0.66800
H 	H 	0.89073 0.27370 0.63400 0.64400
H 	H 	0.93593 0.27590 0.55150 0.65500
H 	H 	0.75333 0.19420 0.51860 -0.40700
H 	H 	0.88463 0.14410 0.40380 0.68900
H 	H 	0.81513 0.06540 0.40160 0.68500
H 	H 	0.95703 0.08590 0.43250 0.66000
H 	H 	0.77493 0.15330 0.62480 0.23000
H 	H 	0.99663 0.02800 0.64810 0.05500
H 	H 	0.85153 0.04900 0.66720 0.06300
H 	H 	0.13553 0.16300 0.67870 0.08800
H 	H 	0.80333 0.18180 0.79450 0.06400
H 	H 	0.85573 0.32150 0.89600 -0.03100
H 	H 	0.17903 0.30290 0.77760 0.00300
H 	H 	0.98513 0.07980 0.55430 0.04300
H 	H 	0.17180 0.63650 0.21580 0.43400
H 	H 	0.05740 0.63970 0.27370 0.44100
H 	H 	0.10260 0.72440 0.27590 0.45000
H 	H 	0.92000 0.67560 0.19420 -0.23400
H 	H 	0.05130 0.74030 0.14410 0.46100
H 	H 	0.98180 0.66380 0.06540 0.41700
H 	H 	0.12370 0.65340 0.08590 0.43000
H 	H 	0.94160 0.52850 0.15330 0.16700
H 	H 	0.16330 0.37990 0.02800 0.06700
H 	H 	0.01820 0.38180 0.04900 0.07700
H 	H 	0.30220 0.48430 0.16300 0.10000
H 	H 	0.97000 0.38730 0.18180 0.02400
H 	H 	0.02240 0.42550 0.32150 -0.01800
H 	H 	0.34570 0.52530 0.30290 -0.00200
H 	H 	0.15180 0.52550 0.07980 0.07300
H 	H 	0.83847 0.57930 0.36350 0.57900
H 	H 	0.72407 0.63400 0.36030 0.58100
H 	H 	0.76927 0.55150 0.27560 0.59500
H 	H 	0.58667 0.51860 0.32440 -0.36900
H 	H 	0.71797 0.40380 0.25970 0.65000
H 	H 	0.64847 0.40160 0.33620 0.64300
H 	H 	0.79037 0.43250 0.34660 0.61900
H 	H 	0.60827 0.62480 0.47150 0.21700
H 	H 	0.82997 0.64810 0.62010 0.06100
H 	H 	0.68487 0.66720 0.61820 0.06700
H 	H 	0.96887 0.67870 0.51570 0.07900
H 	H 	0.63667 0.79450 0.61270 0.07300
H 	H 	0.68907 0.89600 0.57450 -0.04000
H 	H 	0.01237 0.77760 0.47470 0.04600
H 	H 	0.81847 0.55430 0.47450 0.05100
H 	H 	0.50513 0.78420 0.42070 0.59800
H 	H 	0.39073 0.72630 0.36600 0.60100
H 	H 	0.43593 0.72410 0.44850 0.61200
H 	H 	0.25333 0.80580 0.48140 -0.37900
H 	H 	0.38463 0.85590 0.59620 0.67200
H 	H 	0.31513 0.93460 0.59840 0.66500
H 	H 	0.45703 0.91410 0.56750 0.64400
H 	H 	0.27493 0.84670 0.37520 0.22900
H 	H 	0.49663 0.97200 0.35190 0.07200
H 	H 	0.35153 0.95100 0.33280 0.07700
H 	H 	0.63553 0.83700 0.32130 0.10900
H 	H 	0.30333 0.81820 0.20550 0.09100
H 	H 	0.35573 0.67850 0.10400 -0.03400
H 	H 	0.67903 0.69710 0.22240 -0.01400
H 	H 	0.48513 0.92020 0.44570 0.05400
C 	C 	0.59130 0.33690 0.76020 -1.91800
C 	C 	0.49930 0.35470 0.83290 1.37100
C 	C 	0.54280 0.32140 0.88930 -2.07700
C 	C 	0.46650 0.45170 0.88680 -0.66300
C 	C 	0.59630 0.58480 0.93300 -0.21000
C 	C 	0.62910 0.56520 0.84220 0.16700
C 	C 	0.74260 0.52610 0.80480 -0.23500
C 	C 	0.54630 0.58430 0.79430 -0.23300
C 	C 	0.57810 0.56050 0.71010 0.09100
C 	C 	0.76900 0.50230 0.72120 0.09700
C 	C 	0.35350 0.46700 0.94740 0.51500
C 	C 	0.25797 0.42330 0.66310 -1.95500
C 	C 	0.16597 0.47820 0.64530 1.40400
C 	C 	0.20947 0.56790 0.67860 -2.12200
C 	C 	0.13317 0.43510 0.54830 -0.68500
C 	C 	0.26297 0.34820 0.41520 -0.21200
C 	C 	0.29577 0.27700 0.43480 0.16900
C 	C 	0.40927 0.27870 0.47390 -0.23500
C 	C 	0.21297 0.21000 0.41570 -0.23300
C 	C 	0.24477 0.14960 0.43950 0.09200
C 	C 	0.43567 0.21890 0.49770 0.09800
C 	C 	0.02017 0.48040 0.53300 0.56100
C 	C 	0.92463 0.23980 0.57670 -2.12800
C 	C 	0.83263 0.16710 0.52180 1.48300
C 	C 	0.87613 0.11070 0.43210 -2.19700
C 	C 	0.79983 0.11320 0.56490 -0.70700
C 	C 	0.92963 0.06700 0.65180 -0.17900
C 	C 	0.96243 0.15780 0.72300 0.10200
C 	C 	0.07593 0.19520 0.72130 -0.16500
C 	C 	0.87963 0.20570 0.79000 -0.18600
C 	C 	0.91143 0.28990 0.85040 0.03900
C 	C 	0.10233 0.27880 0.78110 0.06600
C 	C 	0.68683 0.05260 0.51960 0.53400
C 	C 	0.09130 0.66310 0.23980 -1.39000
C 	C 	0.99930 0.64530 0.16710 0.89600
C 	C 	0.04280 0.67860 0.11070 -1.37000
C 	C 	0.96650 0.54830 0.11320 -0.52300
C 	C 	0.09630 0.41520 0.06700 -0.18000
C 	C 	0.12910 0.43480 0.15780 0.12700
C 	C 	0.24260 0.47390 0.19520 -0.19900
C 	C 	0.04630 0.41570 0.20570 -0.13000
C 	C 	0.07810 0.43950 0.28990 0.04900
C 	C 	0.26900 0.49770 0.27880 0.08300
C 	C 	0.85350 0.53300 0.05260 0.47700
C 	C 	0.75797 0.57670 0.33690 -1.90200
C 	C 	0.66597 0.52180 0.35470 1.35700
C 	C 	0.70947 0.43210 0.32140 -2.05400
C 	C 	0.63317 0.56490 0.45170 -0.66000
C 	C 	0.76297 0.65180 0.58480 -0.19000
C 	C 	0.79577 0.72300 0.56520 0.13400
C 	C 	0.90927 0.72130 0.52610 -0.17800
C 	C 	0.71297 0.79000 0.58430 -0.20900
C 	C 	0.74477 0.85040 0.56050 0.07700
C 	C 	0.93567 0.78110 0.50230 0.01100
C 	C 	0.52017 0.51960 0.46700 0.52000
C 	C 	0.42463 0.76020 0.42330 -1.95500
C 	C 	0.33263 0.83290 0.47820 1.40100
C 	C 	0.37613 0.88930 0.56790 -2.11700
C 	C 	0.29983 0.88680 0.43510 -0.67700
C 	C 	0.42963 0.93300 0.34820 -0.21200
C 	C 	0.46243 0.84220 0.27700 0.17000
C 	C 	0.57593 0.80480 0.27870 -0.23800
C 	C 	0.37963 0.79430 0.21000 -0.23200
C 	C 	0.41143 0.71010 0.14960 0.09500
C 	C 	0.60233 0.72120 0.21890 0.10100
C 	C 	0.18683 0.94740 0.48040 0.52900
Br	Br	0.56999 0.45363 0.13105 -0.55800
Br	Br	0.23666 0.67742 0.54637 -0.54800
Br	Br	0.90332 0.86895 0.32258 -0.57400
Br	Br	0.06999 0.54637 0.86895 -0.53100
Br	Br	0.73666 0.32258 0.45363 -0.56800
Br	Br	0.40332 0.13105 0.67742 -0.55800
N 	N 	0.57990 0.50710 0.94050 -0.16900
N 	N 	0.68690 0.51770 0.67190 -0.27500
N 	N 	0.24657 0.43340 0.49290 -0.16600
N 	N 	0.35357 0.15420 0.48230 -0.27400
N 	N 	0.91323 0.05950 0.56660 -0.16700
N 	N 	0.02023 0.32810 0.84580 -0.25000
N 	N 	0.07990 0.49290 0.05950 -0.18000
N 	N 	0.18690 0.48230 0.32810 -0.26100
N 	N 	0.74657 0.56660 0.50710 -0.17200
N 	N 	0.85357 0.84580 0.51770 -0.26100
N 	N 	0.41323 0.94050 0.43340 -0.16600
N 	N 	0.52023 0.67190 0.15420 -0.27500
O 	O 	0.25490 0.42750 0.91010 -0.49700
O 	O 	0.36400 0.51700 0.02620 -0.50400
O 	O 	0.92157 0.48260 0.57250 -0.53000
O 	O 	0.03067 0.50920 0.48300 -0.51200
O 	O 	0.58823 0.08990 0.51740 -0.50200
O 	O 	0.69733 0.97380 0.49080 -0.52000
O 	O 	0.75490 0.57250 0.08990 -0.48600
O 	O 	0.86400 0.48300 0.97380 -0.51000
O 	O 	0.42157 0.51740 0.42750 -0.49800
O 	O 	0.53067 0.49080 0.51700 -0.51400
O 	O 	0.08823 0.91010 0.48260 -0.48200
O 	O 	0.19733 0.02620 0.50920 -0.51200
