data_crystal

_cell_length_a 9.36300
_cell_length_b 9.36300
_cell_length_c 9.36300
_cell_angle_alpha 93.22470
_cell_angle_beta  93.22470
_cell_angle_gamma 93.22470

_symmetry_space_group_name_	'P 1'
_symmetry_space_group_name_H-M	'P 1'

loop_
_symmetry_equiv_pos_as_xyz
  x,y,z

loop_
_atom_site_label
_atom_site_type_symbol
_atom_site_fract_x
_atom_site_fract_y
_atom_site_fract_z
_atom_site_charge
Zn	Zn	0.93813 0.66658 0.12556 1.25100
Zn	Zn	0.12556 0.93813 0.66658 1.25100
Zn	Zn	0.66658 0.12556 0.93813 1.25100
Zn	Zn	0.06187 0.33342 0.87444 1.21300
Zn	Zn	0.87444 0.06187 0.33342 1.21300
Zn	Zn	0.33342 0.87444 0.06187 1.21400
Zn	Zn	-0.00000 0.00000 -0.00000 1.08800
P 	P 	0.12027 0.68690 0.87339 0.54900
P 	P 	0.87339 0.12027 0.68690 0.54900
P 	P 	0.68690 0.87339 0.12027 0.54900
P 	P 	0.87973 0.31310 0.12661 0.54600
P 	P 	0.12661 0.87973 0.31310 0.54600
P 	P 	0.31310 0.12661 0.87973 0.54600
O 	O 	0.14570 0.94070 0.46660 -0.44600
O 	O 	0.74580 0.72470 0.12030 -0.44400
O 	O 	0.05240 0.73050 0.30140 -0.52500
O 	O 	0.02080 0.77400 0.96820 -0.55900
O 	O 	0.46660 0.14570 0.94070 -0.44600
O 	O 	0.12030 0.74580 0.72470 -0.44400
O 	O 	0.30140 0.05240 0.73050 -0.52500
O 	O 	0.96820 0.02080 0.77400 -0.55900
O 	O 	0.94070 0.46660 0.14570 -0.44600
O 	O 	0.72470 0.12030 0.74580 -0.44400
O 	O 	0.73050 0.30140 0.05240 -0.52500
O 	O 	0.77400 0.96820 0.02080 -0.55900
O 	O 	0.85430 0.05930 0.53340 -0.49000
O 	O 	0.25420 0.27530 0.87970 -0.44700
O 	O 	0.94760 0.26950 0.69860 -0.38700
O 	O 	0.97920 0.22600 0.03180 -0.62400
O 	O 	0.53340 0.85430 0.05930 -0.49000
O 	O 	0.87970 0.25420 0.27530 -0.44700
O 	O 	0.69860 0.94760 0.26950 -0.38700
O 	O 	0.03180 0.97920 0.22600 -0.62400
O 	O 	0.05930 0.53340 0.85430 -0.49000
O 	O 	0.27530 0.87970 0.25420 -0.44700
O 	O 	0.26950 0.69860 0.94760 -0.38700
O 	O 	0.22600 0.03180 0.97920 -0.62400
