data_crystal

_cell_length_a 7.73000
_cell_length_b 17.79700
_cell_length_c 26.67500
_cell_angle_alpha 93.46600
_cell_angle_beta  90.00000
_cell_angle_gamma 90.00000

_symmetry_space_group_name_	'P 1'
_symmetry_space_group_name_H-M	'P 1'

loop_
_symmetry_equiv_pos_as_xyz
  x,y,z

loop_
_atom_site_label
_atom_site_type_symbol
_atom_site_fract_x
_atom_site_fract_y
_atom_site_fract_z
_atom_site_charge
Zn	Zn	0.43200 0.19657 0.02400 1.22100
Zn	Zn	0.97647 0.30341 0.96333 1.21300
Zn	Zn	0.93200 0.80343 0.47600 1.22100
Zn	Zn	0.47647 0.69659 0.53667 1.21400
Zn	Zn	0.56800 0.80343 0.97600 1.22100
Zn	Zn	0.02353 0.69659 0.03667 1.21300
Zn	Zn	0.06800 0.19657 0.52400 1.22100
Zn	Zn	0.52353 0.30341 0.46333 1.21400
H 	H 	0.27740 0.04260 0.98980 0.02400
H 	H 	0.64420 0.45280 0.06640 0.05300
H 	H 	0.32870 0.76800 0.09340 -0.00200
H 	H 	0.14540 0.56640 0.11120 0.02600
H 	H 	0.39990 0.58180 0.16390 0.03800
H 	H 	0.64200 0.77640 0.09970 0.06900
H 	H 	0.88730 0.83020 0.13470 0.06900
H 	H 	0.79720 0.72680 0.26110 0.06600
H 	H 	0.54990 0.67370 0.22570 0.06400
H 	H 	0.12950 0.68420 0.23120 0.06800
H 	H 	0.26440 0.63090 0.29800 0.06300
H 	H 	0.25320 0.83010 0.37530 0.06900
H 	H 	0.11420 0.88240 0.30890 0.06200
H 	H 	0.28930 0.76390 0.44440 -0.01500
H 	H 	0.46870 0.59500 0.35630 0.03700
H 	H 	0.56100 0.57790 0.44200 0.02500
H 	H 	0.84730 0.94560 0.21620 0.06400
H 	H 	0.93400 0.05550 0.18230 0.06800
H 	H 	0.40920 0.97280 0.16270 0.07100
H 	H 	0.32110 0.86010 0.19430 0.06700
H 	H 	0.10150 0.17630 0.18510 0.03300
H 	H 	0.37770 0.05310 0.08660 0.00400
H 	H 	0.21820 0.25850 0.12340 0.03600
H 	H 	0.77740 0.95740 0.51020 0.02300
H 	H 	0.14420 0.54720 0.43360 0.05200
H 	H 	0.82870 0.23200 0.40660 -0.00200
H 	H 	0.64540 0.43360 0.38880 0.02600
H 	H 	0.89990 0.41820 0.33610 0.03900
H 	H 	0.14200 0.22360 0.40030 0.06800
H 	H 	0.38730 0.16980 0.36530 0.07000
H 	H 	0.29720 0.27320 0.23890 0.06700
H 	H 	0.04990 0.32630 0.27430 0.06300
H 	H 	0.62950 0.31580 0.26880 0.06800
H 	H 	0.76440 0.36910 0.20200 0.06300
H 	H 	0.75320 0.16990 0.12470 0.06900
H 	H 	0.61420 0.11760 0.19110 0.06200
H 	H 	0.78930 0.23610 0.05560 -0.01500
H 	H 	0.96870 0.40500 0.14370 0.03800
H 	H 	0.06100 0.42210 0.05800 0.02300
H 	H 	0.34730 0.05440 0.28380 0.06600
H 	H 	0.43400 0.94450 0.31770 0.06300
H 	H 	0.90920 0.02720 0.33730 0.07000
H 	H 	0.82110 0.13990 0.30570 0.06800
H 	H 	0.60150 0.82370 0.31490 0.03400
H 	H 	0.87770 0.94690 0.41340 0.00400
H 	H 	0.71820 0.74150 0.37660 0.03600
H 	H 	0.72260 0.95740 0.01020 0.02400
H 	H 	0.35580 0.54720 0.93360 0.05300
H 	H 	0.67130 0.23200 0.90660 -0.00200
H 	H 	0.85460 0.43360 0.88880 0.02600
H 	H 	0.60010 0.41820 0.83610 0.03800
H 	H 	0.35800 0.22360 0.90030 0.06900
H 	H 	0.11270 0.16980 0.86530 0.06900
H 	H 	0.20280 0.27320 0.73890 0.06600
H 	H 	0.45010 0.32630 0.77430 0.06400
H 	H 	0.87050 0.31580 0.76880 0.06800
H 	H 	0.73560 0.36910 0.70200 0.06300
H 	H 	0.74680 0.16990 0.62470 0.06900
H 	H 	0.88580 0.11760 0.69110 0.06200
H 	H 	0.71070 0.23610 0.55560 -0.01500
H 	H 	0.53130 0.40500 0.64370 0.03700
H 	H 	0.43900 0.42210 0.55800 0.02500
H 	H 	0.15270 0.05440 0.78380 0.06400
H 	H 	0.06600 0.94450 0.81770 0.06800
H 	H 	0.59080 0.02720 0.83730 0.07100
H 	H 	0.67890 0.13990 0.80570 0.06700
H 	H 	0.89850 0.82370 0.81490 0.03300
H 	H 	0.62230 0.94690 0.91340 0.00400
H 	H 	0.78180 0.74150 0.87660 0.03600
H 	H 	0.22260 0.04260 0.48980 0.02300
H 	H 	0.85580 0.45280 0.56640 0.05200
H 	H 	0.17130 0.76800 0.59340 -0.00200
H 	H 	0.35460 0.56640 0.61120 0.02600
H 	H 	0.10010 0.58180 0.66390 0.03900
H 	H 	0.85800 0.77640 0.59970 0.06800
H 	H 	0.61270 0.83020 0.63470 0.07000
H 	H 	0.70280 0.72680 0.76110 0.06700
H 	H 	0.95010 0.67370 0.72570 0.06300
H 	H 	0.37050 0.68420 0.73120 0.06800
H 	H 	0.23560 0.63090 0.79800 0.06300
H 	H 	0.24680 0.83010 0.87530 0.06900
H 	H 	0.38580 0.88240 0.80890 0.06200
H 	H 	0.21070 0.76390 0.94440 -0.01500
H 	H 	0.03130 0.59500 0.85630 0.03800
H 	H 	0.93900 0.57790 0.94200 0.02300
H 	H 	0.65270 0.94560 0.71620 0.06600
H 	H 	0.56600 0.05550 0.68230 0.06300
H 	H 	0.09080 0.97280 0.66270 0.07000
H 	H 	0.17890 0.86010 0.69430 0.06800
H 	H 	0.39850 0.17630 0.68510 0.03400
H 	H 	0.12230 0.05310 0.58660 0.00400
H 	H 	0.28180 0.25850 0.62340 0.03600
C 	C 	0.02880 0.07431 0.98808 -0.08800
C 	C 	0.16530 0.02515 0.99415 0.00700
C 	C 	0.85760 0.04880 0.99364 -0.03700
C 	C 	0.07010 0.15339 0.97607 0.39000
C 	C 	0.69240 0.09406 0.98686 0.34400
C 	C 	0.45850 0.34411 0.02638 0.31800
C 	C 	0.47630 0.42454 0.01138 -0.04300
C 	C 	0.25110 0.40934 0.94217 0.37400
C 	C 	0.38830 0.45367 0.97101 -0.06700
C 	C 	0.58570 0.47169 0.03946 -0.01400
C 	C 	0.31430 0.71980 0.10431 0.10500
C 	C 	0.21470 0.60920 0.11426 0.01000
C 	C 	0.35460 0.61730 0.14338 0.00600
C 	C 	0.57110 0.72069 0.15951 0.09800
C 	C 	0.67270 0.76690 0.13241 -0.08000
C 	C 	0.81950 0.79900 0.15336 -0.08900
C 	C 	0.86760 0.78540 0.20223 0.09500
C 	C 	0.76570 0.73750 0.22862 -0.08100
C 	C 	0.61770 0.70550 0.20747 -0.07500
C 	C 	0.10650 0.78740 0.26346 0.09000
C 	C 	0.15270 0.71370 0.26042 -0.08400
C 	C 	0.23400 0.68150 0.30026 -0.07500
C 	C 	0.26900 0.72560 0.34323 0.09100
C 	C 	0.22670 0.80040 0.34646 -0.08900
C 	C 	0.14430 0.83170 0.30671 -0.07200
C 	C 	0.34490 0.71960 0.43335 0.09400
C 	C 	0.44390 0.62680 0.38435 0.00500
C 	C 	0.49360 0.61740 0.43173 0.01000
C 	C 	0.07300 0.89020 0.20714 0.08900
C 	C 	0.95990 0.95000 0.20448 -0.07400
C 	C 	0.01190 0.01610 0.18464 -0.08500
C 	C 	0.17930 0.02340 0.16837 0.09500
C 	C 	0.29490 0.96670 0.17259 -0.07500
C 	C 	0.24230 0.89920 0.19178 -0.07400
C 	C 	0.17140 0.16170 0.15786 0.00700
C 	C 	0.32400 0.09420 0.10327 0.09500
C 	C 	0.23590 0.20680 0.12362 0.00100
C 	C 	0.52880 0.92569 0.51192 -0.08800
C 	C 	0.66530 0.97485 0.50585 0.00700
C 	C 	0.35760 0.95120 0.50636 -0.03700
C 	C 	0.57010 0.84661 0.52393 0.39000
C 	C 	0.19240 0.90594 0.51314 0.34400
C 	C 	0.95850 0.65589 0.47362 0.31700
C 	C 	0.97630 0.57546 0.48862 -0.04200
C 	C 	0.75110 0.59066 0.55783 0.37400
C 	C 	0.88830 0.54633 0.52899 -0.06800
C 	C 	0.08570 0.52831 0.46054 -0.01400
C 	C 	0.81430 0.28020 0.39569 0.10500
C 	C 	0.71470 0.39080 0.38574 0.01000
C 	C 	0.85460 0.38270 0.35662 0.00600
C 	C 	0.07110 0.27931 0.34049 0.09500
C 	C 	0.17270 0.23310 0.36759 -0.07800
C 	C 	0.31950 0.20100 0.34664 -0.09100
C 	C 	0.36760 0.21460 0.29777 0.09600
C 	C 	0.26570 0.26250 0.27138 -0.08200
C 	C 	0.11770 0.29450 0.29253 -0.07300
C 	C 	0.60650 0.21260 0.23654 0.09000
C 	C 	0.65270 0.28630 0.23958 -0.08300
C 	C 	0.73400 0.31850 0.19974 -0.07500
C 	C 	0.76900 0.27440 0.15677 0.09100
C 	C 	0.72670 0.19960 0.15354 -0.09000
C 	C 	0.64430 0.16830 0.19329 -0.07200
C 	C 	0.84490 0.28040 0.06665 0.09500
C 	C 	0.94390 0.37320 0.11565 0.00400
C 	C 	0.99360 0.38260 0.06827 0.01400
C 	C 	0.57300 0.10980 0.29286 0.09200
C 	C 	0.45990 0.05000 0.29552 -0.08100
C 	C 	0.51190 0.98390 0.31536 -0.07400
C 	C 	0.67930 0.97660 0.33163 0.09200
C 	C 	0.79490 0.03330 0.32741 -0.07300
C 	C 	0.74230 0.10080 0.30822 -0.07700
C 	C 	0.67140 0.83830 0.34214 0.00700
C 	C 	0.82400 0.90580 0.39673 0.09500
C 	C 	0.73590 0.79320 0.37638 0.00100
C 	C 	0.97120 0.92569 0.01192 -0.08800
C 	C 	0.83470 0.97485 0.00585 0.00700
C 	C 	0.14240 0.95120 0.00636 -0.03700
C 	C 	0.92990 0.84661 0.02393 0.39000
C 	C 	0.30760 0.90594 0.01314 0.34400
C 	C 	0.54150 0.65589 0.97362 0.31800
C 	C 	0.52370 0.57546 0.98862 -0.04300
C 	C 	0.74890 0.59066 0.05783 0.37400
C 	C 	0.61170 0.54633 0.02899 -0.06700
C 	C 	0.41430 0.52831 0.96054 -0.01400
C 	C 	0.68570 0.28020 0.89569 0.10500
C 	C 	0.78530 0.39080 0.88574 0.01000
C 	C 	0.64540 0.38270 0.85662 0.00600
C 	C 	0.42890 0.27931 0.84049 0.09800
C 	C 	0.32730 0.23310 0.86759 -0.08000
C 	C 	0.18050 0.20100 0.84664 -0.08900
C 	C 	0.13240 0.21460 0.79777 0.09500
C 	C 	0.23430 0.26250 0.77138 -0.08100
C 	C 	0.38230 0.29450 0.79253 -0.07500
C 	C 	0.89350 0.21260 0.73654 0.09000
C 	C 	0.84730 0.28630 0.73958 -0.08400
C 	C 	0.76600 0.31850 0.69974 -0.07500
C 	C 	0.73100 0.27440 0.65677 0.09100
C 	C 	0.77330 0.19960 0.65354 -0.08900
C 	C 	0.85570 0.16830 0.69329 -0.07200
C 	C 	0.65510 0.28040 0.56665 0.09400
C 	C 	0.55610 0.37320 0.61565 0.00500
C 	C 	0.50640 0.38260 0.56827 0.01000
C 	C 	0.92700 0.10980 0.79286 0.08900
C 	C 	0.04010 0.05000 0.79552 -0.07400
C 	C 	0.98810 0.98390 0.81536 -0.08500
C 	C 	0.82070 0.97660 0.83163 0.09500
C 	C 	0.70510 0.03330 0.82741 -0.07500
C 	C 	0.75770 0.10080 0.80822 -0.07400
C 	C 	0.82860 0.83830 0.84214 0.00700
C 	C 	0.67600 0.90580 0.89673 0.09500
C 	C 	0.76410 0.79320 0.87638 0.00100
C 	C 	0.47120 0.07431 0.48808 -0.08800
C 	C 	0.33470 0.02515 0.49415 0.00700
C 	C 	0.64240 0.04880 0.49364 -0.03700
C 	C 	0.42990 0.15339 0.47607 0.39000
C 	C 	0.80760 0.09406 0.48686 0.34400
C 	C 	0.04150 0.34411 0.52638 0.31700
C 	C 	0.02370 0.42454 0.51138 -0.04200
C 	C 	0.24890 0.40934 0.44217 0.37400
C 	C 	0.11170 0.45367 0.47101 -0.06800
C 	C 	0.91430 0.47169 0.53946 -0.01400
C 	C 	0.18570 0.71980 0.60431 0.10500
C 	C 	0.28530 0.60920 0.61426 0.01000
C 	C 	0.14540 0.61730 0.64338 0.00600
C 	C 	0.92890 0.72069 0.65951 0.09500
C 	C 	0.82730 0.76690 0.63241 -0.07800
C 	C 	0.68050 0.79900 0.65336 -0.09100
C 	C 	0.63240 0.78540 0.70223 0.09600
C 	C 	0.73430 0.73750 0.72862 -0.08200
C 	C 	0.88230 0.70550 0.70747 -0.07300
C 	C 	0.39350 0.78740 0.76346 0.09000
C 	C 	0.34730 0.71370 0.76042 -0.08300
C 	C 	0.26600 0.68150 0.80026 -0.07500
C 	C 	0.23100 0.72560 0.84323 0.09100
C 	C 	0.27330 0.80040 0.84646 -0.09000
C 	C 	0.35570 0.83170 0.80671 -0.07200
C 	C 	0.15510 0.71960 0.93335 0.09500
C 	C 	0.05610 0.62680 0.88435 0.00400
C 	C 	0.00640 0.61740 0.93173 0.01400
C 	C 	0.42700 0.89020 0.70714 0.09200
C 	C 	0.54010 0.95000 0.70448 -0.08100
C 	C 	0.48810 0.01610 0.68464 -0.07400
C 	C 	0.32070 0.02340 0.66837 0.09200
C 	C 	0.20510 0.96670 0.67259 -0.07300
C 	C 	0.25770 0.89920 0.69178 -0.07700
C 	C 	0.32860 0.16170 0.65786 0.00700
C 	C 	0.17600 0.09420 0.60327 0.09500
C 	C 	0.26410 0.20680 0.62362 0.00100
N 	N 	0.01520 0.82064 0.22384 -0.15300
N 	N 	0.18880 0.67376 0.08954 -0.27000
N 	N 	0.41910 0.68787 0.13725 -0.13500
N 	N 	0.34990 0.69207 0.38508 -0.13600
N 	N 	0.42940 0.67529 0.46263 -0.25900
N 	N 	0.22790 0.09078 0.14493 -0.13600
N 	N 	0.33200 0.16448 0.08901 -0.25400
N 	N 	0.51520 0.17936 0.27616 -0.15400
N 	N 	0.68880 0.32624 0.41046 -0.27000
N 	N 	0.91910 0.31213 0.36275 -0.13300
N 	N 	0.84990 0.30793 0.11492 -0.13600
N 	N 	0.92940 0.32471 0.03737 -0.25900
N 	N 	0.72790 0.90922 0.35507 -0.13500
N 	N 	0.83200 0.83552 0.41099 -0.25400
N 	N 	0.98480 0.17936 0.77616 -0.15300
N 	N 	0.81120 0.32624 0.91046 -0.27000
N 	N 	0.58090 0.31213 0.86275 -0.13500
N 	N 	0.65010 0.30793 0.61492 -0.13600
N 	N 	0.57060 0.32471 0.53737 -0.25900
N 	N 	0.77210 0.90922 0.85507 -0.13600
N 	N 	0.66800 0.83552 0.91099 -0.25400
N 	N 	0.48480 0.82064 0.72384 -0.15400
N 	N 	0.31120 0.67376 0.58954 -0.27000
N 	N 	0.08090 0.68787 0.63725 -0.13300
N 	N 	0.15010 0.69207 0.88508 -0.13600
N 	N 	0.07060 0.67529 0.96263 -0.25900
N 	N 	0.27210 0.09078 0.64493 -0.13500
N 	N 	0.16800 0.16448 0.58901 -0.25400
O 	O 	0.22060 0.17766 0.98041 -0.49800
O 	O 	0.94610 0.19270 0.96102 -0.46400
O 	O 	0.61180 0.08465 0.94794 -0.29800
O 	O 	0.64400 0.13469 0.02509 -0.45100
O 	O 	0.50110 0.29090 0.99501 -0.44400
O 	O 	0.41270 0.33290 0.06924 -0.33000
O 	O 	0.18730 0.35719 0.96564 -0.49100
O 	O 	0.20580 0.42652 0.90054 -0.29900
O 	O 	0.72060 0.82234 0.51959 -0.49800
O 	O 	0.44610 0.80730 0.53898 -0.46400
O 	O 	0.11180 0.91535 0.55206 -0.29700
O 	O 	0.14400 0.86531 0.47491 -0.45000
O 	O 	0.00110 0.70910 0.50499 -0.44300
O 	O 	0.91270 0.66710 0.43076 -0.32900
O 	O 	0.68730 0.64281 0.53436 -0.49200
O 	O 	0.70580 0.57348 0.59946 -0.30000
O 	O 	0.77940 0.82234 0.01959 -0.49800
O 	O 	0.05390 0.80730 0.03898 -0.46400
O 	O 	0.38820 0.91535 0.05206 -0.29800
O 	O 	0.35600 0.86531 0.97491 -0.45100
O 	O 	0.49890 0.70910 0.00499 -0.44400
O 	O 	0.58730 0.66710 0.93076 -0.33000
O 	O 	0.81270 0.64281 0.03436 -0.49100
O 	O 	0.79420 0.57348 0.09946 -0.29900
O 	O 	0.27940 0.17766 0.48041 -0.49800
O 	O 	0.55390 0.19270 0.46102 -0.46400
O 	O 	0.88820 0.08465 0.44794 -0.29700
O 	O 	0.85600 0.13469 0.52509 -0.45000
O 	O 	0.99890 0.29090 0.49501 -0.44300
O 	O 	0.08730 0.33290 0.56924 -0.32900
O 	O 	0.31270 0.35719 0.46564 -0.49200
O 	O 	0.29420 0.42652 0.40054 -0.30000
