data_crystal

_cell_length_a 9.90150
_cell_length_b 9.90150
_cell_length_c 13.41990
_cell_angle_alpha 90.00000
_cell_angle_beta  90.00000
_cell_angle_gamma 90.00000

_symmetry_space_group_name_	'P 1'
_symmetry_space_group_name_H-M	'P 1'

loop_
_symmetry_equiv_pos_as_xyz
  x,y,z

loop_
_atom_site_label
_atom_site_type_symbol
_atom_site_fract_x
_atom_site_fract_y
_atom_site_fract_z
_atom_site_charge
Zn	Zn	0.85315 0.10025 0.69678 1.22200
Zn	Zn	0.14685 0.89975 0.69678 1.24400
Zn	Zn	0.10025 0.14685 0.30322 1.20700
Zn	Zn	0.89975 0.85315 0.30322 1.25300
Zn	Zn	0.64685 0.60025 0.80322 1.23700
Zn	Zn	0.35315 0.39975 0.80322 1.23200
Zn	Zn	0.39975 0.64685 0.19678 1.23000
Zn	Zn	0.60025 0.35315 0.19678 1.22800
Zn	Zn	-0.00000 0.00000 -0.00000 1.13600
Zn	Zn	0.50000 0.50000 0.50000 1.23300
P 	P 	0.88390 0.82710 0.81600 0.62600
P 	P 	0.11610 0.17290 0.81600 0.50200
P 	P 	0.82710 0.11610 0.18400 0.50700
P 	P 	0.17290 0.88390 0.18400 0.63700
P 	P 	0.61610 0.32710 0.68400 0.57000
P 	P 	0.38390 0.67290 0.68400 0.56800
P 	P 	0.67290 0.61610 0.31600 0.56900
P 	P 	0.32710 0.38390 0.31600 0.57000
P 	P 	0.00000 0.00000 0.50000 0.31500
P 	P 	0.50000 0.50000 -0.00000 0.41000
O 	O 	0.87680 0.88900 0.92180 -0.32500
O 	O 	0.81330 0.91560 0.74070 -0.41800
O 	O 	0.03230 0.80680 0.78990 -0.50200
O 	O 	0.81850 0.69000 0.81600 -0.39000
O 	O 	0.92770 0.10440 0.56170 -0.37600
O 	O 	0.12320 0.11100 0.92180 -0.42800
O 	O 	0.18670 0.08440 0.74070 -0.51100
O 	O 	0.96770 0.19320 0.78990 -0.39800
O 	O 	0.18150 0.31000 0.81600 -0.41900
O 	O 	0.07230 0.89560 0.56170 -0.38600
O 	O 	0.88900 0.12320 0.07820 -0.46100
O 	O 	0.91560 0.18670 0.25930 -0.43700
O 	O 	0.80680 0.96770 0.21010 -0.39600
O 	O 	0.69000 0.18150 0.18400 -0.44600
O 	O 	0.10440 0.07230 0.43830 -0.46900
O 	O 	0.11100 0.87680 0.07820 -0.48400
O 	O 	0.08440 0.81330 0.25930 -0.50800
O 	O 	0.19320 0.03230 0.21010 -0.56900
O 	O 	0.31000 0.81850 0.18400 -0.42700
O 	O 	0.89560 0.92770 0.43830 -0.30200
O 	O 	0.62320 0.38900 0.57820 -0.44300
O 	O 	0.68670 0.41560 0.75930 -0.45100
O 	O 	0.46770 0.30680 0.71010 -0.47600
O 	O 	0.68150 0.19000 0.68400 -0.43400
O 	O 	0.57230 0.60440 0.93830 -0.33900
O 	O 	0.37680 0.61100 0.57820 -0.44600
O 	O 	0.31330 0.58440 0.75930 -0.46500
O 	O 	0.53230 0.69320 0.71010 -0.45200
O 	O 	0.31850 0.81000 0.68400 -0.39500
O 	O 	0.42770 0.39560 0.93830 -0.35500
O 	O 	0.61100 0.62320 0.42180 -0.43400
O 	O 	0.58440 0.68670 0.24070 -0.46900
O 	O 	0.69320 0.46770 0.28990 -0.46500
O 	O 	0.81000 0.68150 0.31600 -0.40100
O 	O 	0.39560 0.57230 0.06170 -0.47000
O 	O 	0.38900 0.37680 0.42180 -0.45500
O 	O 	0.41560 0.31330 0.24070 -0.49300
O 	O 	0.30680 0.53230 0.28990 -0.48200
O 	O 	0.19000 0.31850 0.31600 -0.45500
O 	O 	0.60440 0.42770 0.06170 -0.46400
