data_crystal

_cell_length_a 5.23510
_cell_length_b 18.92810
_cell_length_c 18.92810
_cell_angle_alpha 88.90420
_cell_angle_beta  82.05130
_cell_angle_gamma 82.05120

_symmetry_space_group_name_	'P 1'
_symmetry_space_group_name_H-M	'P 1'

loop_
_symmetry_equiv_pos_as_xyz
  x,y,z

loop_
_atom_site_label
_atom_site_type_symbol
_atom_site_fract_x
_atom_site_fract_y
_atom_site_fract_z
_atom_site_charge
Zn	Zn	0.29866 0.05905 0.51149 1.21800
Zn	Zn	0.86920 0.94095 0.48851 1.21800
Zn	Zn	0.64229 0.48851 0.05905 1.21800
Zn	Zn	0.18985 0.51149 0.94095 1.21600
H 	H 	0.95930 0.18770 0.59710 0.00500
H 	H 	0.66080 0.00760 0.63240 0.03600
H 	H 	0.98970 0.95120 0.70740 0.05300
H 	H 	0.14850 0.94160 0.81560 0.03700
H 	H 	0.94890 0.01460 0.91200 0.03100
H 	H 	0.59440 0.09740 0.90100 0.05800
H 	H 	0.28270 0.16170 0.82650 0.07500
H 	H 	0.90500 0.29890 0.63750 0.11100
H 	H 	0.71690 0.40970 0.69210 0.01800
H 	H 	0.62890 0.30940 0.88240 -0.00000
H 	H 	0.83840 0.20230 0.82730 0.10000
H 	H 	0.74410 0.81230 0.40290 0.00400
H 	H 	0.30080 0.99240 0.36760 0.03600
H 	H 	0.64830 0.04880 0.29260 0.05500
H 	H 	0.90570 0.05840 0.18440 0.03600
H 	H 	0.87550 0.98540 0.08800 0.03200
H 	H 	0.59280 0.90260 0.09900 0.05700
H 	H 	0.27090 0.83830 0.17350 0.07500
H 	H 	0.84140 0.70110 0.36250 0.11100
H 	H 	0.81870 0.59030 0.30790 0.01800
H 	H 	0.82070 0.69060 0.11760 0.00000
H 	H 	0.86800 0.79770 0.17270 0.10100
H 	H 	0.85300 0.40290 0.18770 0.00500
H 	H 	0.33160 0.36760 0.00760 0.03400
H 	H 	0.05910 0.29260 0.95120 0.04800
H 	H 	0.90990 0.18440 0.94160 0.04500
H 	H 	0.03650 0.08800 0.01460 0.02500
H 	H 	0.30820 0.09900 0.09740 0.06000
H 	H 	0.55560 0.17350 0.16170 0.07700
H 	H 	0.79610 0.36250 0.29890 0.10800
H 	H 	0.87340 0.30790 0.40970 0.02100
H 	H 	0.06170 0.11760 0.30940 0.00500
H 	H 	0.95930 0.17270 0.20230 0.09700
H 	H 	0.44360 0.59710 0.81230 0.00400
H 	H 	0.70680 0.63240 0.99240 0.04000
H 	H 	0.30290 0.70740 0.04880 0.05500
H 	H 	0.03590 0.81560 0.05840 0.03200
H 	H 	0.13910 0.91200 0.98540 0.03200
H 	H 	0.50460 0.90100 0.90260 0.05500
H 	H 	0.89080 0.82650 0.83830 0.07100
H 	H 	0.45750 0.63750 0.70110 0.11000
H 	H 	0.59100 0.69210 0.59030 0.01800
H 	H 	0.48870 0.88240 0.69060 -0.00000
H 	H 	0.33430 0.82730 0.79770 0.09900
C 	C 	0.07534 0.16419 0.62713 0.09600
C 	C 	0.38017 0.09026 0.66560 0.04500
C 	C 	0.58637 0.03799 0.67147 -0.11500
C 	C 	0.68300 0.03114 0.73726 0.03000
C 	C 	0.90640 0.98093 0.74607 -0.07100
C 	C 	0.00077 0.97545 0.81001 -0.03600
C 	C 	0.88149 0.01945 0.86777 -0.01700
C 	C 	0.67252 0.06850 0.86126 -0.09000
C 	C 	0.56733 0.07738 0.79516 0.04500
C 	C 	0.35934 0.13098 0.78794 -0.12800
C 	C 	0.27093 0.13721 0.72293 0.08100
C 	C 	0.92164 0.24558 0.72954 0.18400
C 	C 	0.86220 0.30250 0.68790 -0.19400
C 	C 	0.73680 0.36710 0.71930 0.09800
C 	C 	0.63941 0.36622 0.79396 -0.17200
C 	C 	0.68600 0.30830 0.83250 0.11200
C 	C 	0.81919 0.24505 0.80037 -0.20000
C 	C 	0.47910 0.43180 0.83000 0.40800
C 	C 	0.86666 0.83581 0.37287 0.09800
C 	C 	0.13603 0.90974 0.33440 0.04600
C 	C 	0.29583 0.96201 0.32853 -0.11700
C 	C 	0.45140 0.96886 0.26274 0.03200
C 	C 	0.63340 0.01907 0.25393 -0.07500
C 	C 	0.78623 0.02455 0.18999 -0.03000
C 	C 	0.76871 0.98055 0.13223 -0.02300
C 	C 	0.60228 0.93150 0.13874 -0.08600
C 	C 	0.43987 0.92262 0.20484 0.04300
C 	C 	0.27826 0.86902 0.21206 -0.12600
C 	C 	0.13107 0.86279 0.27707 0.07900
C 	C 	0.89676 0.75442 0.27046 0.18300
C 	C 	0.85260 0.69750 0.31210 -0.19300
C 	C 	0.82320 0.63290 0.28070 0.09800
C 	C 	0.79959 0.63378 0.20604 -0.17100
C 	C 	0.82680 0.69170 0.16750 0.11200
C 	C 	0.86461 0.75495 0.19963 -0.19900
C 	C 	0.74090 0.56820 0.17000 0.40800
C 	C 	0.76047 0.37287 0.16419 0.09800
C 	C 	0.52957 0.33440 0.09026 0.04300
C 	C 	0.37564 0.32853 0.03799 -0.11200
C 	C 	0.28586 0.26274 0.03114 0.02400
C 	C 	0.11267 0.25393 0.98093 -0.06300
C 	C 	0.02378 0.18999 0.97545 -0.05200
C 	C 	0.09906 0.13223 0.01945 -0.01000
C 	C 	0.25898 0.13874 0.06850 -0.09600
C 	C 	0.35529 0.20484 0.07738 0.04900
C 	C 	0.50968 0.21206 0.13098 -0.13000
C 	C 	0.59186 0.27707 0.13721 0.08300
C 	C 	0.83278 0.27046 0.24558 0.17600
C 	C 	0.83530 0.31210 0.30250 -0.18600
C 	C 	0.89610 0.28070 0.36710 0.09000
C 	C 	0.99437 0.20604 0.36622 -0.15900
C 	C 	0.00570 0.16750 0.30830 0.09300
C 	C 	0.93576 0.19963 0.24505 -0.18600
C 	C 	0.08910 0.17000 0.43180 0.40200
C 	C 	0.29753 0.62713 0.83581 0.09700
C 	C 	0.95423 0.66560 0.90974 0.06300
C 	C 	0.74216 0.67147 0.96201 -0.12600
C 	C 	0.57974 0.73726 0.96886 0.04000
C 	C 	0.34753 0.74607 0.01907 -0.08100
C 	C 	0.18922 0.81001 0.02455 -0.02600
C 	C 	0.25074 0.86777 0.98055 -0.02800
C 	C 	0.46622 0.86126 0.93150 -0.08000
C 	C 	0.63751 0.79516 0.92262 0.03500
C 	C 	0.85272 0.78794 0.86902 -0.11100
C 	C 	0.00614 0.72293 0.86279 0.06400
C 	C 	0.34882 0.72954 0.75442 0.18100
C 	C 	0.44990 0.68790 0.69750 -0.19300
C 	C 	0.54390 0.71930 0.63290 0.09800
C 	C 	0.56663 0.79396 0.63378 -0.17100
C 	C 	0.48150 0.83250 0.69170 0.11100
C 	C 	0.38044 0.80037 0.75495 -0.19800
C 	C 	0.69090 0.83000 0.56820 0.40800
N 	N 	0.25016 0.10970 0.60678 -0.26900
N 	N 	0.07667 0.18373 0.69613 -0.16200
N 	N 	0.96664 0.89030 0.39322 -0.26900
N 	N 	0.95653 0.81627 0.30387 -0.16000
N 	N 	0.64014 0.39322 0.10970 -0.26900
N 	N 	0.73960 0.30387 0.18373 -0.16000
N 	N 	0.14306 0.60678 0.89030 -0.27500
N 	N 	0.22720 0.69613 0.81627 -0.15800
O 	O 	0.16270 0.97009 0.52511 -0.57300
O 	O 	0.46113 0.44316 0.88818 -0.53200
O 	O 	0.46210 0.48800 0.78180 -0.28100
O 	O 	0.65790 0.02991 0.47489 -0.57400
O 	O 	0.79247 0.55684 0.11182 -0.53000
O 	O 	0.73190 0.51200 0.21820 -0.28000
O 	O 	0.86721 0.47489 0.97009 -0.57000
O 	O 	0.09571 0.11182 0.44316 -0.53000
O 	O 	0.04990 0.21820 0.48800 -0.28100
O 	O 	0.31219 0.52511 0.02991 -0.57700
O 	O 	0.65069 0.88818 0.55684 -0.53200
O 	O 	0.75610 0.78180 0.51200 -0.28000
