data_crystal

_cell_length_a 5.06620
_cell_length_b 19.09940
_cell_length_c 19.09940
_cell_angle_alpha 88.99210
_cell_angle_beta  82.37860
_cell_angle_gamma 82.37860

_symmetry_space_group_name_	'P 1'
_symmetry_space_group_name_H-M	'P 1'

loop_
_symmetry_equiv_pos_as_xyz
  x,y,z

loop_
_atom_site_label
_atom_site_type_symbol
_atom_site_fract_x
_atom_site_fract_y
_atom_site_fract_z
_atom_site_charge
Zn	Zn	0.52093 0.98386 0.55770 1.21400
Zn	Zn	0.06249 0.01614 0.44230 1.20900
Zn	Zn	0.92137 0.55770 0.01614 1.21300
Zn	Zn	0.49521 0.44230 0.98386 1.21400
H 	H 	0.26580 0.89890 0.68570 -0.01700
H 	H 	0.02210 0.86750 0.50730 0.00900
H 	H 	0.43450 0.79420 0.44940 0.05000
H 	H 	0.72370 0.68830 0.43990 0.04600
H 	H 	0.62310 0.59190 0.51330 0.02900
H 	H 	0.25290 0.60200 0.59720 0.06000
H 	H 	0.85210 0.67550 0.66210 0.07600
H 	H 	0.00830 0.81520 0.73980 0.09200
H 	H 	0.80660 0.75860 0.83960 0.02800
H 	H 	0.52990 0.65490 0.87010 0.03900
H 	H 	0.73290 0.71370 0.77290 0.08600
H 	H 	0.85040 0.10110 0.31430 -0.01900
H 	H 	0.39690 0.13250 0.49270 0.03600
H 	H 	0.67810 0.20580 0.55060 0.05900
H 	H 	0.85190 0.31170 0.56010 0.04200
H 	H 	0.72830 0.40810 0.48670 0.03300
H 	H 	0.45210 0.39800 0.40280 0.05700
H 	H 	0.18970 0.32450 0.33790 0.07300
H 	H 	0.56330 0.18480 0.26020 0.09200
H 	H 	0.40480 0.24140 0.16040 0.03000
H 	H 	0.05490 0.34510 0.12990 0.04300
H 	H 	0.21950 0.28630 0.22710 0.08600
H 	H 	0.04850 0.68570 0.10110 -0.01300
H 	H 	0.47060 0.50730 0.13250 0.03500
H 	H 	0.11610 0.44940 0.20580 0.05700
H 	H 	0.83640 0.43990 0.31170 0.04300
H 	H 	0.86360 0.51330 0.40810 0.03000
H 	H 	0.14990 0.59720 0.39800 0.05800
H 	H 	0.48580 0.66210 0.32450 0.07500
H 	H 	0.25190 0.73980 0.18480 0.08900
H 	H 	0.35380 0.83960 0.24140 0.03900
H 	H 	0.60000 0.87010 0.34510 0.04800
H 	H 	0.49420 0.77290 0.28630 0.08100
H 	H 	0.83530 0.31430 0.89890 -0.01600
H 	H 	0.11040 0.49270 0.86750 0.03800
H 	H 	0.77130 0.55060 0.79420 0.05800
H 	H 	0.58800 0.56010 0.68830 0.04000
H 	H 	0.78500 0.48670 0.59190 0.03200
H 	H 	0.14510 0.40280 0.60200 0.05700
H 	H 	0.47240 0.33790 0.67550 0.07400
H 	H 	0.17650 0.26020 0.81520 0.09700
H 	H 	0.43480 0.16040 0.75860 0.02700
H 	H 	0.81520 0.12990 0.65490 0.03500
H 	H 	0.55340 0.22710 0.71370 0.08900
C 	C 	0.41807 0.86991 0.66255 0.10300
C 	C 	0.77364 0.83368 0.58984 0.02800
C 	C 	0.99050 0.82883 0.53777 -0.06800
C 	C 	0.16458 0.76449 0.53115 0.00300
C 	C 	0.39614 0.75596 0.47996 -0.05500
C 	C 	0.56724 0.69293 0.47379 -0.04500
C 	C 	0.50750 0.63546 0.51834 -0.01100
C 	C 	0.28827 0.64136 0.56810 -0.09100
C 	C 	0.10950 0.70617 0.57743 0.04900
C 	C 	0.88846 0.71340 0.63088 -0.12300
C 	C 	0.72670 0.77741 0.63639 0.08100
C 	C 	0.38179 0.76956 0.74566 0.14900
C 	C 	0.16321 0.70571 0.86667 -0.11700
C 	C 	0.03451 0.67090 0.93128 0.32600
C 	C 	0.11600 0.78320 0.76620 -0.16600
C 	C 	0.99560 0.75070 0.82630 0.05700
C 	C 	0.42510 0.68920 0.84520 0.06800
C 	C 	0.54400 0.72240 0.78620 -0.15700
C 	C 	0.95053 0.13009 0.33745 0.11800
C 	C 	0.19716 0.16632 0.41016 0.04500
C 	C 	0.35710 0.17117 0.46223 -0.12200
C 	C 	0.46022 0.23551 0.46885 0.03600
C 	C 	0.63206 0.24404 0.52004 -0.07400
C 	C 	0.73396 0.30707 0.52621 -0.03100
C 	C 	0.66130 0.36454 0.48166 -0.02100
C 	C 	0.49773 0.35864 0.43190 -0.08100
C 	C 	0.39310 0.29383 0.42257 0.04000
C 	C 	0.23274 0.28660 0.36912 -0.11900
C 	C 	0.14050 0.22259 0.36361 0.06500
C 	C 	0.89701 0.23044 0.25434 0.14900
C 	C 	0.73559 0.29429 0.13333 -0.11100
C 	C 	0.63669 0.32910 0.06872 0.32100
C 	C 	0.66540 0.21680 0.23380 -0.16100
C 	C 	0.57260 0.24930 0.17370 0.05000
C 	C 	0.95950 0.31080 0.15480 0.06200
C 	C 	0.05260 0.27760 0.21380 -0.15700
C 	C 	0.91938 0.66255 0.13009 0.09800
C 	C 	0.63652 0.58984 0.16632 0.04300
C 	C 	0.47173 0.53777 0.17117 -0.11800
C 	C 	0.30427 0.53115 0.23551 0.03300
C 	C 	0.12390 0.47996 0.24404 -0.07100
C 	C 	0.95897 0.47379 0.30707 -0.03700
C 	C 	0.97416 0.51834 0.36454 -0.01400
C 	C 	0.14363 0.56810 0.35864 -0.09000
C 	C 	0.31307 0.57743 0.29383 0.04500
C 	C 	0.48066 0.63088 0.28660 -0.12400
C 	C 	0.63691 0.63639 0.22259 0.07400
C 	C 	0.87255 0.74566 0.23044 0.14100
C 	C 	0.97012 0.86667 0.29429 -0.07400
C 	C 	0.03421 0.93128 0.32910 0.28500
C 	C 	0.11780 0.76620 0.21680 -0.15100
C 	C 	0.17810 0.82630 0.24930 0.02100
C 	C 	0.72970 0.84520 0.31080 0.04100
C 	C 	0.66980 0.78620 0.27760 -0.14100
C 	C 	0.71202 0.33745 0.86991 0.10300
C 	C 	0.39268 0.41016 0.83368 0.04500
C 	C 	0.18067 0.46223 0.82883 -0.12100
C 	C 	0.07093 0.46885 0.76449 0.03900
C 	C 	0.84790 0.52004 0.75596 -0.07800
C 	C 	0.73983 0.52621 0.69293 -0.03100
C 	C 	0.85704 0.48166 0.63546 -0.02000
C 	C 	0.07037 0.43190 0.64136 -0.08300
C 	C 	0.18433 0.42257 0.70617 0.04200
C 	C 	0.39814 0.36912 0.71340 -0.12200
C 	C 	0.49589 0.36361 0.77741 0.07300
C 	C 	0.84865 0.25434 0.76956 0.15600
C 	C 	0.13108 0.13333 0.70571 -0.13000
C 	C 	0.29459 0.06872 0.67090 0.32700
C 	C 	0.10080 0.23380 0.78320 -0.17200
C 	C 	0.25370 0.17370 0.75070 0.06100
C 	C 	0.88570 0.15480 0.68920 0.08700
C 	C 	0.73360 0.21380 0.72240 -0.16600
N 	N 	0.57225 0.89063 0.60767 -0.27300
N 	N 	0.49787 0.80284 0.68302 -0.15900
N 	N 	0.07055 0.10937 0.39233 -0.28500
N 	N 	0.98373 0.19716 0.31698 -0.15500
N 	N 	0.82008 0.60767 0.10937 -0.27700
N 	N 	0.81911 0.68302 0.19716 -0.15600
N 	N 	0.53712 0.39233 0.89063 -0.27700
N 	N 	0.69929 0.31698 0.80284 -0.15900
O 	O 	0.39505 0.96965 0.46805 -0.56900
O 	O 	0.14565 0.61211 0.94879 -0.45500
O 	O 	0.77270 0.68520 0.94820 -0.29300
O 	O 	0.83275 0.03035 0.53195 -0.56000
O 	O 	0.70655 0.38789 0.05121 -0.45700
O 	O 	0.40610 0.31480 0.05180 -0.28900
O 	O 	0.13690 0.46805 0.03035 -0.56400
O 	O 	0.90556 0.94879 0.38789 -0.43400
O 	O 	0.27910 0.94820 0.31480 -0.28400
O 	O 	0.63530 0.53195 0.96965 -0.56900
O 	O 	0.24224 0.05121 0.61211 -0.46000
O 	O 	0.54210 0.05180 0.68520 -0.28900
