data_crystal

_cell_length_a 15.34210
_cell_length_b 15.34210
_cell_length_c 15.34210
_cell_angle_alpha 60.00000
_cell_angle_beta  60.00000
_cell_angle_gamma 60.00000

_symmetry_space_group_name_	'P 1'
_symmetry_space_group_name_H-M	'P 1'

loop_
_symmetry_equiv_pos_as_xyz
  x,y,z

loop_
_atom_site_label
_atom_site_type_symbol
_atom_site_fract_x
_atom_site_fract_y
_atom_site_fract_z
_atom_site_charge
Zn	Zn	0.15416 0.15416 0.53752 1.18400
Zn	Zn	0.15416 0.15416 0.15416 1.18500
Zn	Zn	0.53752 0.15416 0.15416 1.18400
Zn	Zn	0.15416 0.53752 0.15416 1.18400
Zn	Zn	0.84584 0.84584 0.46248 1.18200
Zn	Zn	0.84584 0.84584 0.84584 1.18100
Zn	Zn	0.84584 0.46248 0.84584 1.18200
Zn	Zn	0.46248 0.84584 0.84584 1.18300
Zn	Zn	0.25000 0.25000 0.25000 1.13600
Zn	Zn	0.75000 0.75000 0.75000 1.13400
H 	H 	0.00000 0.34080 0.65920 0.09700
H 	H 	0.34080 0.00000 -0.00000 0.09600
H 	H 	0.65920 0.00000 -0.00000 0.09500
H 	H 	0.00000 0.65920 0.34080 0.09700
H 	H 	-0.00000 0.65920 -0.00000 0.09500
H 	H 	0.34080 0.00000 0.65920 0.09700
H 	H 	0.65920 0.00000 0.34080 0.09700
H 	H 	-0.00000 0.34080 -0.00000 0.09600
H 	H 	-0.00000 0.00000 0.34080 0.09600
H 	H 	0.34080 0.65920 -0.00000 0.09700
H 	H 	0.65920 0.34080 -0.00000 0.09700
H 	H 	0.00000 0.00000 0.65920 0.09500
C 	C 	0.05360 0.40100 0.49180 0.07000
C 	C 	0.40100 0.05360 0.05360 0.07000
C 	C 	0.49180 0.05360 0.05360 0.06900
C 	C 	0.05360 0.49180 0.40100 0.07000
C 	C 	0.05360 0.49180 0.05360 0.06900
C 	C 	0.40100 0.05360 0.49180 0.07000
C 	C 	0.49180 0.05360 0.40100 0.07000
C 	C 	0.05360 0.40100 0.05360 0.07000
C 	C 	0.05360 0.05360 0.40100 0.07000
C 	C 	0.40100 0.49180 0.05360 0.07000
C 	C 	0.49180 0.40100 0.05360 0.07000
C 	C 	0.05360 0.05360 0.49180 0.06900
C 	C 	0.59900 0.94640 0.50820 0.05700
C 	C 	0.94640 0.59900 0.94640 0.04300
C 	C 	0.94640 0.50820 0.94640 0.04400
C 	C 	0.50820 0.94640 0.59900 0.05700
C 	C 	0.50820 0.94640 0.94640 0.04400
C 	C 	0.94640 0.59900 0.50820 0.05700
C 	C 	0.94640 0.50820 0.59900 0.05700
C 	C 	0.59900 0.94640 0.94640 0.04300
C 	C 	0.94640 0.94640 0.59900 0.04300
C 	C 	0.50820 0.59900 0.94640 0.05700
C 	C 	0.59900 0.50820 0.94640 0.05700
C 	C 	0.94640 0.94640 0.50820 0.04400
C 	C 	-0.00000 0.40140 0.59860 -0.16700
C 	C 	0.40140 0.00000 -0.00000 -0.14900
C 	C 	0.59860 0.00000 -0.00000 -0.14800
C 	C 	-0.00000 0.59860 0.40140 -0.16700
C 	C 	0.00000 0.59860 -0.00000 -0.14800
C 	C 	0.40140 -0.00000 0.59860 -0.16700
C 	C 	0.59860 0.00000 0.40140 -0.16700
C 	C 	-0.00000 0.40140 -0.00000 -0.14900
C 	C 	0.00000 0.00000 0.40140 -0.14900
C 	C 	0.40140 0.59860 -0.00000 -0.16700
C 	C 	0.59860 0.40140 -0.00000 -0.16700
C 	C 	-0.00000 -0.00000 0.59860 -0.14800
N 	N 	0.11420 0.31484 0.45676 -0.24100
N 	N 	0.31484 0.11420 0.11420 -0.24000
N 	N 	0.45676 0.11420 0.11420 -0.24100
N 	N 	0.11420 0.45676 0.31484 -0.24100
N 	N 	0.11420 0.45676 0.11420 -0.24100
N 	N 	0.31484 0.11420 0.45676 -0.24100
N 	N 	0.45676 0.11420 0.31484 -0.24100
N 	N 	0.11420 0.31484 0.11420 -0.24000
N 	N 	0.11420 0.11420 0.31484 -0.24000
N 	N 	0.31484 0.45676 0.11420 -0.24100
N 	N 	0.45676 0.31484 0.11420 -0.24100
N 	N 	0.11420 0.11420 0.45676 -0.24100
N 	N 	0.68516 0.88580 0.54324 -0.24300
N 	N 	0.88580 0.68516 0.88580 -0.24200
N 	N 	0.88580 0.54324 0.88580 -0.24200
N 	N 	0.54324 0.88580 0.68516 -0.24300
N 	N 	0.54324 0.88580 0.88580 -0.24200
N 	N 	0.88580 0.68516 0.54324 -0.24300
N 	N 	0.88580 0.54324 0.68516 -0.24300
N 	N 	0.68516 0.88580 0.88580 -0.24200
N 	N 	0.88580 0.88580 0.68516 -0.24200
N 	N 	0.54324 0.68516 0.88580 -0.24300
N 	N 	0.68516 0.54324 0.88580 -0.24300
N 	N 	0.88580 0.88580 0.54324 -0.24200
N 	N 	0.14810 0.35190 0.35190 -0.20000
N 	N 	0.35190 0.14810 0.14810 -0.19900
N 	N 	0.14810 0.35190 0.14810 -0.19900
N 	N 	0.35190 0.14810 0.35190 -0.20000
N 	N 	0.14810 0.14810 0.35190 -0.19900
N 	N 	0.35190 0.35190 0.14810 -0.20000
N 	N 	0.64810 0.85190 0.64810 -0.20100
N 	N 	0.85190 0.64810 0.85190 -0.20200
N 	N 	0.64810 0.85190 0.85190 -0.20200
N 	N 	0.85190 0.64810 0.64810 -0.20100
N 	N 	0.85190 0.85190 0.64810 -0.20200
N 	N 	0.64810 0.64810 0.85190 -0.20100
Cl	Cl	0.09812 0.09812 0.70564 -0.51500
Cl	Cl	0.09812 0.09812 0.09812 -0.50700
Cl	Cl	0.70564 0.09812 0.09812 -0.51500
Cl	Cl	0.09812 0.70564 0.09812 -0.51500
Cl	Cl	0.90188 0.90188 0.29436 -0.54200
Cl	Cl	0.90188 0.90188 0.90188 -0.55400
Cl	Cl	0.90188 0.29436 0.90188 -0.54200
Cl	Cl	0.29436 0.90188 0.90188 -0.54200
