data_crystal

_cell_length_a 6.65970
_cell_length_b 11.02870
_cell_length_c 11.02870
_cell_angle_alpha 108.09000
_cell_angle_beta  90.00000
_cell_angle_gamma 90.00000

_symmetry_space_group_name_	'P 1'
_symmetry_space_group_name_H-M	'P 1'

loop_
_symmetry_equiv_pos_as_xyz
  x,y,z

loop_
_atom_site_label
_atom_site_type_symbol
_atom_site_fract_x
_atom_site_fract_y
_atom_site_fract_z
_atom_site_charge
Zn	Zn	0.88019 0.00000 0.50000 1.21800
Zn	Zn	0.11981 0.50000 -0.00000 1.21800
H 	H 	0.66590 0.95610 0.85830 0.17800
H 	H 	0.44660 0.97990 0.80970 0.19000
H 	H 	0.39210 0.26350 0.56710 0.14100
H 	H 	0.26030 0.34680 0.68500 0.14400
H 	H 	0.61600 0.74300 0.76500 0.12700
H 	H 	0.55000 0.18600 0.74000 0.12400
H 	H 	0.66590 0.04390 0.14170 0.05000
H 	H 	0.44660 0.02010 0.19030 0.06300
H 	H 	0.39210 0.73650 0.43290 0.14500
H 	H 	0.26030 0.65320 0.31500 0.13500
H 	H 	0.61600 0.25700 0.23500 0.12300
H 	H 	0.55000 0.81400 0.26000 0.13200
H 	H 	0.33410 0.14170 0.04390 0.05000
H 	H 	0.55340 0.19030 0.02010 0.06300
H 	H 	0.60790 0.43290 0.73650 0.14500
H 	H 	0.73970 0.31500 0.65320 0.13500
H 	H 	0.38400 0.23500 0.25700 0.12300
H 	H 	0.45000 0.26000 0.81400 0.13200
H 	H 	0.33410 0.85830 0.95610 0.17700
H 	H 	0.55340 0.80970 0.97990 0.18900
H 	H 	0.60790 0.56710 0.26350 0.14000
H 	H 	0.73970 0.68500 0.34680 0.14300
H 	H 	0.38400 0.76500 0.74300 0.12700
H 	H 	0.45000 0.74000 0.18600 0.12400
C 	C 	0.56350 0.92146 0.79134 -0.32400
C 	C 	0.65000 0.91255 0.66145 0.50200
C 	C 	0.33470 0.26557 0.65043 -0.26200
C 	C 	0.19080 0.15498 0.63142 0.39700
C 	C 	0.56350 0.07854 0.20866 -0.17500
C 	C 	0.65000 0.08745 0.33855 0.25900
C 	C 	0.33470 0.73443 0.34957 -0.24900
C 	C 	0.19080 0.84502 0.36858 0.38700
C 	C 	0.43650 0.20866 0.07854 -0.17500
C 	C 	0.35000 0.33855 0.08745 0.25900
C 	C 	0.66530 0.34957 0.73443 -0.24900
C 	C 	0.80920 0.36858 0.84502 0.38700
C 	C 	0.43650 0.79134 0.92146 -0.32400
C 	C 	0.35000 0.66145 0.91255 0.50200
C 	C 	0.66530 0.65043 0.26557 -0.26200
C 	C 	0.80920 0.63142 0.15498 0.39700
N 	N 	0.50000 0.79220 0.79220 -0.13600
N 	N 	0.50000 0.20780 0.20780 -0.18000
N 	N 	0.50000 0.26085 0.73915 -0.16000
N 	N 	0.50000 0.73915 0.26085 -0.16000
O 	O 	0.70980 0.01902 0.65108 -0.52600
O 	O 	0.66010 0.80986 0.57810 -0.33700
O 	O 	0.05140 0.15236 0.55146 -0.45600
O 	O 	0.21590 0.07865 0.69015 -0.33600
O 	O 	0.70980 0.98098 0.34892 -0.34600
O 	O 	0.66010 0.19014 0.42190 -0.29000
O 	O 	0.05140 0.84764 0.44854 -0.41700
O 	O 	0.21590 0.92135 0.30985 -0.27700
O 	O 	0.29020 0.34892 0.98098 -0.34600
O 	O 	0.33990 0.42190 0.19014 -0.29000
O 	O 	0.94860 0.44854 0.84764 -0.41700
O 	O 	0.78410 0.30985 0.92135 -0.27700
O 	O 	0.29020 0.65108 0.01902 -0.52600
O 	O 	0.33990 0.57810 0.80986 -0.33700
O 	O 	0.94860 0.55146 0.15236 -0.45600
O 	O 	0.78410 0.69015 0.07865 -0.33600
