data_crystal

_cell_length_a 12.91440
_cell_length_b 12.91440
_cell_length_c 12.91440
_cell_angle_alpha 90.00000
_cell_angle_beta  90.00000
_cell_angle_gamma 90.00000

_symmetry_space_group_name_	'P 1'
_symmetry_space_group_name_H-M	'P 1'

loop_
_symmetry_equiv_pos_as_xyz
  x,y,z

loop_
_atom_site_label
_atom_site_type_symbol
_atom_site_fract_x
_atom_site_fract_y
_atom_site_fract_z
_atom_site_charge
Zn	Zn	0.58662 0.58662 0.58662 1.20300
Zn	Zn	0.41338 0.41338 0.58662 1.20400
Zn	Zn	0.41338 0.58662 0.41338 1.20200
Zn	Zn	0.58662 0.41338 0.41338 1.20200
H 	H 	0.82414 0.68492 0.50000 0.06900
H 	H 	0.90842 0.84480 0.50000 0.04000
H 	H 	0.17586 0.68492 0.50000 0.07100
H 	H 	0.09158 0.84480 0.50000 0.03900
H 	H 	0.50000 0.17586 0.31508 0.07100
H 	H 	0.50000 0.09158 0.15520 0.03900
H 	H 	0.50000 0.82414 0.31508 0.06900
H 	H 	0.50000 0.90842 0.15520 0.04000
H 	H 	0.68492 0.50000 0.82414 0.07100
H 	H 	0.84480 0.50000 0.90842 0.03900
H 	H 	0.68492 0.50000 0.17586 0.06900
H 	H 	0.84480 0.50000 0.09158 0.04000
H 	H 	0.50000 0.08504 0.65808 0.03400
H 	H 	0.50000 0.91496 0.65808 0.03500
H 	H 	0.34192 0.50000 0.91496 0.03400
H 	H 	0.34192 0.50000 0.08504 0.03500
H 	H 	0.91496 0.34192 0.50000 0.03500
H 	H 	0.08504 0.34192 0.50000 0.03400
C 	C 	0.78588 0.50000 0.50000 0.42500
C 	C 	0.89906 0.50000 0.50000 -0.13300
C 	C 	0.95242 0.59478 0.50000 0.05200
C 	C 	0.89612 0.68736 0.50000 -0.08300
C 	C 	0.94584 0.78328 0.50000 -0.02800
C 	C 	0.21412 0.50000 0.50000 0.42600
C 	C 	0.10094 0.50000 0.50000 -0.13600
C 	C 	0.04758 0.40522 0.50000 0.00400
C 	C 	0.04758 0.59478 0.50000 0.05700
C 	C 	0.10388 0.68736 0.50000 -0.08700
C 	C 	0.05416 0.78328 0.50000 -0.02300
C 	C 	0.95242 0.40522 0.50000 -0.00200
C 	C 	0.50000 0.78588 0.50000 0.42500
C 	C 	0.50000 0.89906 0.50000 -0.13300
C 	C 	0.50000 0.95242 0.59478 -0.00200
C 	C 	0.50000 0.21412 0.50000 0.42600
C 	C 	0.50000 0.10094 0.50000 -0.13600
C 	C 	0.50000 0.04758 0.40522 0.05700
C 	C 	0.50000 0.10388 0.31264 -0.08700
C 	C 	0.50000 0.05416 0.21672 -0.02300
C 	C 	0.50000 0.04758 0.59478 0.00400
C 	C 	0.50000 0.95242 0.40522 0.05200
C 	C 	0.50000 0.89612 0.31264 -0.08300
C 	C 	0.50000 0.94584 0.21672 -0.02800
C 	C 	0.50000 0.50000 0.78588 0.42600
C 	C 	0.50000 0.50000 0.89906 -0.13600
C 	C 	0.59478 0.50000 0.95242 0.05700
C 	C 	0.68736 0.50000 0.89612 -0.08700
C 	C 	0.78328 0.50000 0.94584 -0.02300
C 	C 	0.50000 0.50000 0.21412 0.42500
C 	C 	0.50000 0.50000 0.10094 -0.13300
C 	C 	0.40522 0.50000 0.04758 -0.00200
C 	C 	0.59478 0.50000 0.04758 0.05200
C 	C 	0.68736 0.50000 0.10388 -0.08300
C 	C 	0.78328 0.50000 0.05416 -0.02800
C 	C 	0.40522 0.50000 0.95242 0.00400
O 	O 	0.50000 0.50000 0.50000 -0.97400
O 	O 	0.73678 0.55904 0.55904 -0.51200
O 	O 	0.26322 0.44096 0.55904 -0.50700
O 	O 	0.26322 0.55904 0.44096 -0.51100
O 	O 	0.73678 0.44096 0.44096 -0.50900
O 	O 	0.55904 0.73678 0.55904 -0.50900
O 	O 	0.55904 0.26322 0.44096 -0.51100
O 	O 	0.44096 0.26322 0.55904 -0.50700
O 	O 	0.44096 0.73678 0.44096 -0.51200
O 	O 	0.55904 0.55904 0.73678 -0.51100
O 	O 	0.44096 0.55904 0.26322 -0.50900
O 	O 	0.55904 0.44096 0.26322 -0.51200
O 	O 	0.44096 0.44096 0.73678 -0.50700
