data_crystal

_cell_length_a 18.26600
_cell_length_b 18.26600
_cell_length_c 18.26600
_cell_angle_alpha 60.00000
_cell_angle_beta  60.00000
_cell_angle_gamma 60.00000

_symmetry_space_group_name_	'P 1'
_symmetry_space_group_name_H-M	'P 1'

loop_
_symmetry_equiv_pos_as_xyz
  x,y,z

loop_
_atom_site_label
_atom_site_type_symbol
_atom_site_fract_x
_atom_site_fract_y
_atom_site_fract_z
_atom_site_charge
Zn	Zn	0.70660 0.88020 0.70660 1.21100
Zn	Zn	0.29340 0.11980 0.29340 1.21100
Zn	Zn	0.70660 0.70660 0.88020 1.21100
Zn	Zn	0.29340 0.29340 0.11980 1.21100
Zn	Zn	0.70660 0.70660 0.70660 1.21100
Zn	Zn	0.29340 0.29340 0.29340 1.21100
Zn	Zn	0.88020 0.70660 0.70660 1.21100
Zn	Zn	0.11980 0.29340 0.29340 1.21100
H 	H 	0.54480 0.06500 0.84540 0.05300
H 	H 	0.45520 0.93500 0.15460 0.05300
H 	H 	0.54480 0.84540 0.06500 0.05400
H 	H 	0.45520 0.15460 0.93500 0.05400
H 	H 	0.84540 0.54480 0.54480 0.05400
H 	H 	0.15460 0.45520 0.45520 0.05400
H 	H 	0.06500 0.54480 0.54480 0.05400
H 	H 	0.93500 0.45520 0.45520 0.05400
H 	H 	0.54480 0.54480 0.06500 0.05400
H 	H 	0.45520 0.45520 0.93500 0.05400
H 	H 	0.54480 0.54480 0.84540 0.05400
H 	H 	0.45520 0.45520 0.15460 0.05400
H 	H 	0.84540 0.06500 0.54480 0.05400
H 	H 	0.15460 0.93500 0.45520 0.05400
H 	H 	0.06500 0.84540 0.54480 0.05400
H 	H 	0.93500 0.15460 0.45520 0.05400
H 	H 	0.54480 0.84540 0.54480 0.05400
H 	H 	0.45520 0.15460 0.45520 0.05400
H 	H 	0.54480 0.06500 0.54480 0.05400
H 	H 	0.45520 0.93500 0.45520 0.05400
H 	H 	0.84540 0.54480 0.06500 0.05400
H 	H 	0.15460 0.45520 0.93500 0.05400
H 	H 	0.06500 0.54480 0.84540 0.05400
H 	H 	0.93500 0.45520 0.15460 0.05400
C 	C 	0.61130 0.88870 0.88870 0.32100
C 	C 	0.38870 0.11130 0.11130 0.32100
C 	C 	0.88870 0.61130 0.61130 0.32100
C 	C 	0.11130 0.38870 0.38870 0.32100
C 	C 	0.61130 0.61130 0.88870 0.32100
C 	C 	0.38870 0.38870 0.11130 0.32100
C 	C 	0.88870 0.88870 0.61130 0.32100
C 	C 	0.11130 0.11130 0.38870 0.32100
C 	C 	0.61130 0.88870 0.61130 0.32100
C 	C 	0.38870 0.11130 0.38870 0.32100
C 	C 	0.88870 0.61130 0.88870 0.32100
C 	C 	0.11130 0.38870 0.11130 0.32100
C 	C 	0.55380 0.94620 0.94620 -0.06300
C 	C 	0.44620 0.05380 0.05380 -0.06300
C 	C 	0.94620 0.55380 0.55380 -0.06400
C 	C 	0.05380 0.44620 0.44620 -0.06400
C 	C 	0.55380 0.55380 0.94620 -0.06400
C 	C 	0.44620 0.44620 0.05380 -0.06400
C 	C 	0.94620 0.94620 0.55380 -0.06300
C 	C 	0.05380 0.05380 0.44620 -0.06300
C 	C 	0.55380 0.94620 0.55380 -0.06400
C 	C 	0.44620 0.05380 0.44620 -0.06400
C 	C 	0.94620 0.55380 0.94620 -0.06300
C 	C 	0.05380 0.44620 0.05380 -0.06300
C 	C 	0.52690 0.03890 0.90730 -0.02400
C 	C 	0.47310 0.96110 0.09270 -0.02400
C 	C 	0.52690 0.90730 0.03890 -0.02400
C 	C 	0.47310 0.09270 0.96110 -0.02400
C 	C 	0.90730 0.52690 0.52690 -0.02300
C 	C 	0.09270 0.47310 0.47310 -0.02300
C 	C 	0.03890 0.52690 0.52690 -0.02400
C 	C 	0.96110 0.47310 0.47310 -0.02400
C 	C 	0.52690 0.52690 0.03890 -0.02400
C 	C 	0.47310 0.47310 0.96110 -0.02400
C 	C 	0.52690 0.52690 0.90730 -0.02300
C 	C 	0.47310 0.47310 0.09270 -0.02300
C 	C 	0.90730 0.03890 0.52690 -0.02400
C 	C 	0.09270 0.96110 0.47310 -0.02400
C 	C 	0.03890 0.90730 0.52690 -0.02400
C 	C 	0.96110 0.09270 0.47310 -0.02400
C 	C 	0.52690 0.90730 0.52690 -0.02300
C 	C 	0.47310 0.09270 0.47310 -0.02300
C 	C 	0.52690 0.03890 0.52690 -0.02400
C 	C 	0.47310 0.96110 0.47310 -0.02400
C 	C 	0.90730 0.52690 0.03890 -0.02400
C 	C 	0.09270 0.47310 0.96110 -0.02400
C 	C 	0.03890 0.52690 0.90730 -0.02400
C 	C 	0.96110 0.47310 0.09270 -0.02400
O 	O 	0.75000 0.75000 0.75000 -0.96700
O 	O 	0.25000 0.25000 0.25000 -0.96700
O 	O 	0.63400 0.92980 0.80220 -0.48200
O 	O 	0.36600 0.07020 0.19780 -0.48200
O 	O 	0.63400 0.80220 0.92980 -0.48200
O 	O 	0.36600 0.19780 0.07020 -0.48200
O 	O 	0.80220 0.63400 0.63400 -0.48200
O 	O 	0.19780 0.36600 0.36600 -0.48200
O 	O 	0.92980 0.63400 0.63400 -0.48200
O 	O 	0.07020 0.36600 0.36600 -0.48200
O 	O 	0.63400 0.63400 0.92980 -0.48200
O 	O 	0.36600 0.36600 0.07020 -0.48200
O 	O 	0.63400 0.63400 0.80220 -0.48200
O 	O 	0.36600 0.36600 0.19780 -0.48200
O 	O 	0.80220 0.92980 0.63400 -0.48200
O 	O 	0.19780 0.07020 0.36600 -0.48200
O 	O 	0.92980 0.80220 0.63400 -0.48200
O 	O 	0.07020 0.19780 0.36600 -0.48200
O 	O 	0.63400 0.80220 0.63400 -0.48200
O 	O 	0.36600 0.19780 0.36600 -0.48200
O 	O 	0.63400 0.92980 0.63400 -0.48200
O 	O 	0.36600 0.07020 0.36600 -0.48200
O 	O 	0.80220 0.63400 0.92980 -0.48200
O 	O 	0.19780 0.36600 0.07020 -0.48200
O 	O 	0.92980 0.63400 0.80220 -0.48200
O 	O 	0.07020 0.36600 0.19780 -0.48200
