data_crystal

_cell_length_a 13.89540
_cell_length_b 13.89540
_cell_length_c 17.78700
_cell_angle_alpha 90.00000
_cell_angle_beta  90.00000
_cell_angle_gamma 90.00000

_symmetry_space_group_name_	'P 1'
_symmetry_space_group_name_H-M	'P 1'

loop_
_symmetry_equiv_pos_as_xyz
  x,y,z

loop_
_atom_site_label
_atom_site_type_symbol
_atom_site_fract_x
_atom_site_fract_y
_atom_site_fract_z
_atom_site_charge
In	In	0.08733 0.08733 0.50000 1.99200
In	In	0.41267 0.58733 0.25000 1.99400
In	In	0.91267 0.91267 -0.00000 1.98000
In	In	0.58733 0.41267 0.75000 1.99400
H 	H 	0.40000 0.17780 0.42790 0.05200
H 	H 	0.32220 0.90000 0.17790 0.06900
H 	H 	0.60000 0.82220 0.92790 0.06300
H 	H 	0.67780 0.10000 0.67790 0.05800
H 	H 	0.90000 0.32220 0.82210 0.04400
H 	H 	0.17780 0.40000 0.57210 0.05300
H 	H 	0.10000 0.67780 0.32210 0.05400
H 	H 	0.82220 0.60000 0.07210 0.04300
H 	H 	0.43160 0.10380 0.36550 0.05600
H 	H 	0.39620 0.93160 0.11550 0.06800
H 	H 	0.56840 0.89620 0.86550 0.06200
H 	H 	0.60380 0.06840 0.61550 0.05900
H 	H 	0.93160 0.39620 0.88450 0.05100
H 	H 	0.10380 0.43160 0.63450 0.05500
H 	H 	0.06840 0.60380 0.38450 0.05600
H 	H 	0.89620 0.56840 0.13450 0.05000
H 	H 	0.50610 0.21440 0.30790 -0.00100
H 	H 	0.28560 0.00610 0.05790 -0.03200
H 	H 	0.49390 0.78560 0.80790 -0.00100
H 	H 	0.71440 0.99390 0.55790 -0.00800
H 	H 	0.00610 0.28560 0.94210 0.01500
H 	H 	0.21440 0.50610 0.69210 0.00000
H 	H 	0.99390 0.71440 0.44210 -0.00300
H 	H 	0.78560 0.49390 0.19210 0.00000
H 	H 	0.47650 0.28770 0.37120 0.01000
H 	H 	0.21230 0.97650 0.12120 -0.01100
H 	H 	0.52350 0.71230 0.87120 0.01200
H 	H 	0.78770 0.02350 0.62120 0.00700
H 	H 	0.97650 0.21230 0.87880 0.02400
H 	H 	0.28770 0.47650 0.62880 0.01000
H 	H 	0.02350 0.78770 0.37880 0.00900
H 	H 	0.71230 0.52350 0.12880 0.00700
H 	H 	0.38350 0.25910 0.23050 0.16500
H 	H 	0.24090 0.88350 0.98050 0.22400
H 	H 	0.61650 0.74090 0.73050 0.17000
H 	H 	0.75910 0.11650 0.48050 0.17000
H 	H 	0.88350 0.24090 0.01950 0.11300
H 	H 	0.25910 0.38350 0.76950 0.17000
H 	H 	0.11650 0.75910 0.51950 0.16800
H 	H 	0.74090 0.61650 0.26950 0.16500
H 	H 	0.28870 0.03340 0.29600 0.05400
H 	H 	0.46660 0.78870 0.04600 0.10300
H 	H 	0.71130 0.96660 0.79600 0.05700
H 	H 	0.53340 0.21130 0.54600 0.05800
H 	H 	0.78870 0.46660 0.95400 0.01200
H 	H 	0.03340 0.28870 0.70400 0.05300
H 	H 	0.21130 0.53340 0.45400 0.05700
H 	H 	0.96660 0.71130 0.20400 0.05300
H 	H 	0.33170 0.11140 0.24190 0.05000
H 	H 	0.38860 0.83170 0.99190 0.13900
H 	H 	0.66830 0.88860 0.74190 0.05200
H 	H 	0.61140 0.16830 0.49190 0.05400
H 	H 	0.83170 0.38860 0.00810 -0.03100
H 	H 	0.11140 0.33170 0.75810 0.05200
H 	H 	0.16830 0.61140 0.50810 0.05300
H 	H 	0.88860 0.66830 0.25810 0.05200
H 	H 	0.22030 0.10670 0.25560 0.05700
H 	H 	0.39330 0.72030 0.00560 0.09500
H 	H 	0.77970 0.89330 0.75560 0.05700
H 	H 	0.60670 0.27970 0.50560 0.06000
H 	H 	0.72030 0.39330 0.99440 0.02500
H 	H 	0.10670 0.22030 0.74440 0.05600
H 	H 	0.27970 0.60670 0.49440 0.06000
H 	H 	0.89330 0.77970 0.24440 0.05700
H 	H 	0.20200 0.25040 0.22730 0.41800
H 	H 	0.24960 0.70200 0.97730 0.52700
H 	H 	0.79800 0.74960 0.72730 0.43100
H 	H 	0.75040 0.29800 0.47730 0.42600
H 	H 	0.70200 0.24960 0.02270 0.32100
H 	H 	0.25040 0.20200 0.77270 0.42900
H 	H 	0.29800 0.75040 0.52270 0.42500
H 	H 	0.74960 0.79800 0.27270 0.41700
H 	H 	0.20220 0.35670 0.25690 0.42100
H 	H 	0.14330 0.70220 0.00690 0.48700
H 	H 	0.79780 0.64330 0.75690 0.43500
H 	H 	0.85670 0.29780 0.50690 0.42900
H 	H 	0.70220 0.14330 0.99310 0.36800
H 	H 	0.35670 0.20220 0.74310 0.43200
H 	H 	0.29780 0.85670 0.49310 0.42700
H 	H 	0.64330 0.79780 0.24310 0.41900
H 	H 	0.14110 0.27790 0.29830 0.42800
H 	H 	0.22210 0.64110 0.04830 0.49800
H 	H 	0.85890 0.72210 0.79830 0.44200
H 	H 	0.77790 0.35890 0.54830 0.43500
H 	H 	0.64110 0.22210 0.95170 0.36900
H 	H 	0.27790 0.14110 0.70170 0.43600
H 	H 	0.35890 0.77790 0.45170 0.43300
H 	H 	0.72210 0.85890 0.20170 0.42400
H 	H 	0.26450 0.40220 0.35980 0.41300
H 	H 	0.09780 0.76450 0.10980 0.43800
H 	H 	0.73550 0.59780 0.85980 0.43300
H 	H 	0.90220 0.23550 0.60980 0.42000
H 	H 	0.76450 0.09780 0.89020 0.39500
H 	H 	0.40220 0.26450 0.64020 0.41700
H 	H 	0.23550 0.90220 0.39020 0.41500
H 	H 	0.59780 0.73550 0.14020 0.39800
H 	H 	0.31430 0.33340 0.41780 0.41300
H 	H 	0.16660 0.81430 0.16780 0.43900
H 	H 	0.68570 0.66660 0.91780 0.43900
H 	H 	0.83340 0.18570 0.66780 0.41900
H 	H 	0.81430 0.16660 0.83220 0.39400
H 	H 	0.33340 0.31430 0.58220 0.41700
H 	H 	0.18570 0.83340 0.33220 0.41400
H 	H 	0.66660 0.68570 0.08220 0.39200
H 	H 	0.20330 0.32560 0.40330 0.41200
H 	H 	0.17440 0.70330 0.15330 0.43600
H 	H 	0.79670 0.67440 0.90330 0.43800
H 	H 	0.82560 0.29670 0.65330 0.41800
H 	H 	0.70330 0.17440 0.84670 0.39400
H 	H 	0.32560 0.20330 0.59670 0.41600
H 	H 	0.29670 0.82560 0.34670 0.41300
H 	H 	0.67440 0.79670 0.09670 0.39100
C 	C 	0.28250 0.26780 0.32010 0.80700
C 	C 	0.23220 0.78250 0.07010 0.89500
C 	C 	0.71750 0.73220 0.82010 0.83200
C 	C 	0.76780 0.21750 0.57010 0.81600
C 	C 	0.78250 0.23220 0.92990 0.72900
C 	C 	0.26780 0.28250 0.67990 0.81700
C 	C 	0.21750 0.76780 0.42990 0.81200
C 	C 	0.73220 0.71750 0.17990 0.79200
C 	C 	0.29230 0.16450 0.34140 -0.27200
C 	C 	0.33550 0.79230 0.09140 -0.24200
C 	C 	0.70770 0.83550 0.84140 -0.27500
C 	C 	0.66450 0.20770 0.59140 -0.27100
C 	C 	0.79230 0.33550 0.90860 -0.29700
C 	C 	0.16450 0.29230 0.65860 -0.27700
C 	C 	0.20770 0.66450 0.40860 -0.27200
C 	C 	0.83550 0.70770 0.15860 -0.27200
C 	C 	0.40070 0.16540 0.37420 -0.11700
C 	C 	0.33460 0.90070 0.12420 -0.17600
C 	C 	0.59930 0.83460 0.87420 -0.12500
C 	C 	0.66540 0.09930 0.62420 -0.12700
C 	C 	0.90070 0.33460 0.87580 -0.07800
C 	C 	0.16540 0.40070 0.62580 -0.11500
C 	C 	0.09930 0.66540 0.37580 -0.12000
C 	C 	0.83460 0.59930 0.12580 -0.10900
C 	C 	0.45210 0.24120 0.33530 0.06600
C 	C 	0.25880 0.95210 0.08530 0.13300
C 	C 	0.54790 0.75880 0.83530 0.07100
C 	C 	0.74120 0.04790 0.58530 0.08100
C 	C 	0.95210 0.25880 0.91470 0.03000
C 	C 	0.24120 0.45210 0.66470 0.06600
C 	C 	0.04790 0.74120 0.41470 0.07000
C 	C 	0.75880 0.54790 0.16470 0.06100
C 	C 	0.38120 0.29160 0.27940 -0.45000
C 	C 	0.20840 0.88120 0.02940 -0.55100
C 	C 	0.61880 0.70840 0.77940 -0.45900
C 	C 	0.79160 0.11880 0.52940 -0.45700
C 	C 	0.88120 0.20840 0.97060 -0.35900
C 	C 	0.29160 0.38120 0.72060 -0.45300
C 	C 	0.11880 0.79160 0.47060 -0.45200
C 	C 	0.70840 0.61880 0.22060 -0.44400
C 	C 	0.21650 0.13410 0.40060 0.37600
C 	C 	0.36590 0.71650 0.15060 0.36600
C 	C 	0.78350 0.86590 0.90060 0.37300
C 	C 	0.63410 0.28350 0.65060 0.37400
C 	C 	0.71650 0.36590 0.84940 0.38300
C 	C 	0.13410 0.21650 0.59940 0.37700
C 	C 	0.28350 0.63410 0.34940 0.37600
C 	C 	0.86590 0.78350 0.09940 0.37800
C 	C 	0.28240 0.09840 0.27840 -0.14100
C 	C 	0.40160 0.78240 0.02840 -0.33300
C 	C 	0.71760 0.90160 0.77840 -0.14200
C 	C 	0.59840 0.21760 0.52840 -0.14700
C 	C 	0.78240 0.40160 0.97160 0.03900
C 	C 	0.09840 0.28240 0.72160 -0.13800
C 	C 	0.21760 0.59840 0.47160 -0.14600
C 	C 	0.90160 0.71760 0.22160 -0.14100
C 	C 	0.19970 0.29010 0.27140 -1.33700
C 	C 	0.20990 0.69970 0.02140 -1.59400
C 	C 	0.80030 0.70990 0.77140 -1.37200
C 	C 	0.79010 0.30030 0.52140 -1.35400
C 	C 	0.69970 0.20990 0.97860 -1.10100
C 	C 	0.29010 0.19970 0.72860 -1.35800
C 	C 	0.30030 0.79010 0.47860 -1.34900
C 	C 	0.70990 0.80030 0.22860 -1.32400
C 	C 	0.26460 0.33850 0.38050 -1.31400
C 	C 	0.16150 0.76460 0.13050 -1.39800
C 	C 	0.73540 0.66150 0.88050 -1.36500
C 	C 	0.83850 0.23540 0.63050 -1.32900
C 	C 	0.76460 0.16150 0.86950 -1.24500
C 	C 	0.33850 0.26460 0.61950 -1.32500
C 	C 	0.23540 0.83850 0.36950 -1.31800
C 	C 	0.66150 0.73540 0.11950 -1.27400
C 	C 	0.40110 0.39900 0.26920 0.41700
C 	C 	0.10100 0.90110 0.01920 0.39300
C 	C 	0.59890 0.60100 0.76920 0.41800
C 	C 	0.89900 0.09890 0.51920 0.41900
C 	C 	0.90110 0.10100 0.98080 0.44600
C 	C 	0.39900 0.40110 0.73080 0.41700
C 	C 	0.09890 0.89900 0.48080 0.41700
C 	C 	0.60100 0.59890 0.23080 0.41600
O 	O 	0.24510 0.10530 0.46460 -0.49800
O 	O 	0.39470 0.74510 0.21460 -0.49500
O 	O 	0.75490 0.89470 0.96460 -0.47200
O 	O 	0.60530 0.25490 0.71460 -0.49500
O 	O 	0.74510 0.39470 0.78540 -0.49800
O 	O 	0.10530 0.24510 0.53540 -0.49900
O 	O 	0.25490 0.60530 0.28540 -0.49900
O 	O 	0.89470 0.75490 0.03540 -0.52100
O 	O 	0.13220 0.13500 0.38520 -0.52200
O 	O 	0.36500 0.63220 0.13520 -0.52500
O 	O 	0.86780 0.86500 0.88520 -0.51100
O 	O 	0.63500 0.36780 0.63520 -0.52000
O 	O 	0.63220 0.36500 0.86480 -0.51400
O 	O 	0.13500 0.13220 0.61480 -0.52300
O 	O 	0.36780 0.63500 0.36480 -0.52000
O 	O 	0.86500 0.86780 0.11480 -0.52900
O 	O 	0.45100 0.44300 0.31690 -0.45800
O 	O 	0.05700 0.95100 0.06690 -0.45800
O 	O 	0.54900 0.55700 0.81690 -0.45400
O 	O 	0.94300 0.04900 0.56690 -0.45400
O 	O 	0.95100 0.05700 0.93310 -0.45000
O 	O 	0.44300 0.45100 0.68310 -0.45800
O 	O 	0.04900 0.94300 0.43310 -0.45700
O 	O 	0.55700 0.54900 0.18310 -0.46100
O 	O 	0.36550 0.44170 0.21450 -0.52800
O 	O 	0.05830 0.86550 0.96450 -0.48400
O 	O 	0.63450 0.55830 0.71450 -0.52400
O 	O 	0.94170 0.13450 0.46450 -0.52100
O 	O 	0.86550 0.05830 0.03550 -0.55800
O 	O 	0.44170 0.36550 0.78550 -0.51900
O 	O 	0.13450 0.94170 0.53550 -0.52200
O 	O 	0.55830 0.63450 0.28550 -0.52300
