data_crystal

_cell_length_a 11.10600
_cell_length_b 15.91600
_cell_length_c 16.22400
_cell_angle_alpha 90.00000
_cell_angle_beta  101.59400
_cell_angle_gamma 90.00000

_symmetry_space_group_name_	'P 1'
_symmetry_space_group_name_H-M	'P 1'

loop_
_symmetry_equiv_pos_as_xyz
  x,y,z

loop_
_atom_site_label
_atom_site_type_symbol
_atom_site_fract_x
_atom_site_fract_y
_atom_site_fract_z
_atom_site_charge
Zn	Zn	0.02696 0.50000 0.59260 1.22100
Zn	Zn	0.97304 0.50000 0.40740 1.22100
H 	H 	0.27726 0.70534 0.64012 0.03700
H 	H 	0.40808 0.83394 0.63962 0.05400
H 	H 	0.32732 0.82950 0.36490 0.05400
H 	H 	0.20392 0.70172 0.36508 0.03600
H 	H 	0.72274 0.70534 0.35988 0.03800
H 	H 	0.59192 0.83394 0.36038 0.05300
H 	H 	0.67268 0.82950 0.63510 0.05400
H 	H 	0.79652 0.70110 0.63450 0.03700
H 	H 	0.72274 0.29466 0.35988 0.03900
H 	H 	0.59192 0.16606 0.36038 0.05700
H 	H 	0.67268 0.17050 0.63510 0.05700
H 	H 	0.79652 0.29890 0.63450 0.03800
H 	H 	0.27726 0.29466 0.64012 0.03900
H 	H 	0.40808 0.16606 0.63962 0.05700
H 	H 	0.32732 0.17050 0.36490 0.05700
H 	H 	0.20392 0.29828 0.36508 0.03800
H 	H 	0.85386 0.50000 0.70050 0.02200
H 	H 	0.85566 0.50000 0.85876 0.04600
H 	H 	0.24266 0.50000 0.75014 0.02100
H 	H 	0.16304 0.50000 0.02572 0.04400
H 	H 	0.14614 0.50000 0.29950 0.02200
H 	H 	0.14434 0.50000 0.14124 0.04600
H 	H 	0.75734 0.50000 0.24986 0.02100
H 	H 	0.83696 0.50000 0.97428 0.04400
H 	H 	0.47994 0.50000 0.98888 0.02900
H 	H 	0.52006 0.50000 0.01112 0.02900
C 	C 	0.15520 0.61670 0.50430 0.43100
C 	C 	0.23940 0.69450 0.50390 -0.11400
C 	C 	0.29090 0.73290 0.57780 0.04500
C 	C 	0.35940 0.80490 0.57760 -0.07200
C 	C 	0.36880 0.84190 0.50140 0.06900
C 	C 	0.31600 0.80230 0.42790 -0.07500
C 	C 	0.25020 0.73130 0.42740 0.04500
C 	C 	0.44010 0.92250 0.50310 -0.04400
C 	C 	0.84480 0.61670 0.49570 0.43100
C 	C 	0.76060 0.69450 0.49610 -0.11400
C 	C 	0.70910 0.73290 0.42220 0.04500
C 	C 	0.64060 0.80490 0.42240 -0.07200
C 	C 	0.63120 0.84190 0.49860 0.06900
C 	C 	0.68400 0.80230 0.57210 -0.07500
C 	C 	0.74980 0.73130 0.57260 0.04500
C 	C 	0.55990 0.92250 0.49690 -0.04400
C 	C 	0.84480 0.38330 0.49570 0.43100
C 	C 	0.76060 0.30550 0.49610 -0.11300
C 	C 	0.70910 0.26710 0.42220 0.04600
C 	C 	0.64060 0.19510 0.42240 -0.07000
C 	C 	0.63120 0.15810 0.49860 0.06900
C 	C 	0.68400 0.19770 0.57210 -0.07200
C 	C 	0.74980 0.26870 0.57260 0.04600
C 	C 	0.55990 0.07750 0.49690 -0.03400
C 	C 	0.15520 0.38330 0.50430 0.43100
C 	C 	0.23940 0.30550 0.50390 -0.11300
C 	C 	0.29090 0.26710 0.57780 0.04600
C 	C 	0.35940 0.19510 0.57760 -0.07000
C 	C 	0.36880 0.15810 0.50140 0.06900
C 	C 	0.31600 0.19770 0.42790 -0.07300
C 	C 	0.25020 0.26870 0.42740 0.04600
C 	C 	0.44010 0.07750 0.50310 -0.03400
C 	C 	0.37810 0.00000 0.50320 0.10500
C 	C 	0.62190 0.00000 0.49680 0.10500
C 	C 	0.94500 0.50000 0.74770 0.02700
C 	C 	0.94600 0.50000 0.83560 -0.06400
C 	C 	0.05260 0.50000 0.89660 0.04600
C 	C 	0.15900 0.50000 0.86300 -0.04400
C 	C 	0.15400 0.50000 0.77540 0.04900
C 	C 	0.06700 0.50000 0.98440 -0.05000
C 	C 	0.27400 0.50000 0.91700 0.02300
C 	C 	0.38000 0.50000 0.95400 -0.05400
C 	C 	0.05500 0.50000 0.25230 0.02700
C 	C 	0.05400 0.50000 0.16440 -0.06400
C 	C 	0.94740 0.50000 0.10340 0.04600
C 	C 	0.84100 0.50000 0.13700 -0.04400
C 	C 	0.84600 0.50000 0.22460 0.04900
C 	C 	0.93300 0.50000 0.01560 -0.05000
C 	C 	0.72600 0.50000 0.08300 0.02300
C 	C 	0.62000 0.50000 0.04600 -0.05400
Br	Br	0.20710 0.00000 0.50360 -0.21800
Br	Br	0.79290 0.00000 0.49640 -0.21800
N 	N 	0.05220 0.50000 0.71210 -0.25200
N 	N 	0.94780 0.50000 0.28790 -0.25200
O 	O 	0.14770 0.59040 0.57390 -0.47600
O 	O 	0.10690 0.58980 0.43510 -0.48000
O 	O 	0.85230 0.59040 0.42610 -0.47600
O 	O 	0.89310 0.58980 0.56490 -0.48000
O 	O 	0.85230 0.40960 0.42610 -0.47600
O 	O 	0.89310 0.41020 0.56490 -0.47900
O 	O 	0.14770 0.40960 0.57390 -0.47600
O 	O 	0.10690 0.41020 0.43510 -0.47900
