data_crystal

_cell_length_a 8.42120
_cell_length_b 12.13150
_cell_length_c 12.13150
_cell_angle_alpha 66.43620
_cell_angle_beta  69.69130
_cell_angle_gamma 69.69130

_symmetry_space_group_name_	'P 1'
_symmetry_space_group_name_H-M	'P 1'

loop_
_symmetry_equiv_pos_as_xyz
  x,y,z

loop_
_atom_site_label
_atom_site_type_symbol
_atom_site_fract_x
_atom_site_fract_y
_atom_site_fract_z
_atom_site_charge
Al	Al	0.21270 0.83690 0.09710 2.41000
Al	Al	0.80230 0.94440 0.84480 2.40100
Al	Al	0.14670 0.16310 0.90290 2.40600
Al	Al	0.59150 0.05560 0.15520 2.40500
Al	Al	0.71270 0.59710 0.33690 2.40800
Al	Al	0.30230 0.34480 0.44440 2.40300
Al	Al	0.64670 0.40290 0.66310 2.40800
Al	Al	0.09150 0.65520 0.55560 2.40400
Al	Al	0.43800 0.89780 0.60220 2.40900
Al	Al	0.93800 0.10220 0.39780 2.41000
P 	P 	0.84500 0.81070 0.11430 0.99700
P 	P 	0.43340 0.94060 0.83940 0.98900
P 	P 	0.77000 0.18930 0.88570 0.95100
P 	P 	0.21340 0.05940 0.16060 1.06800
P 	P 	0.34500 0.61430 0.31070 0.99300
P 	P 	0.93340 0.33940 0.44060 0.99700
P 	P 	0.27000 0.38570 0.68930 0.99600
P 	P 	0.71340 0.66060 0.55940 1.02800
P 	P 	0.07270 0.88600 0.61400 1.29400
P 	P 	0.57270 0.11400 0.38600 1.26200
O 	O 	0.02150 0.81210 0.10850 -0.75100
O 	O 	0.61330 0.93960 0.82560 -0.88000
O 	O 	0.81890 0.68570 0.18670 -0.72800
O 	O 	0.84260 0.83930 0.98510 -0.85800
O 	O 	0.36530 0.84760 0.95620 -0.81500
O 	O 	0.72050 0.90850 0.16730 -0.89600
O 	O 	0.31450 0.06690 0.83330 -0.79900
O 	O 	0.97410 0.89280 0.73440 -0.92100
O 	O 	0.43420 0.91440 0.73320 -0.85000
O 	O 	0.94210 0.18790 0.89150 -0.81400
O 	O 	0.37850 0.06040 0.17440 -0.83400
O 	O 	0.69130 0.31430 0.81330 -0.73300
O 	O 	0.66700 0.16070 0.01490 -0.75600
O 	O 	0.16910 0.15240 0.04380 -0.73400
O 	O 	0.79630 0.09150 0.83270 -0.85400
O 	O 	0.21470 0.93310 0.16670 -0.85900
O 	O 	0.60130 0.10720 0.26560 -0.86800
O 	O 	0.08180 0.08560 0.26680 -0.80100
O 	O 	0.52150 0.60850 0.31210 -0.77900
O 	O 	0.11330 0.32560 0.43960 -0.82200
O 	O 	0.31890 0.68670 0.18570 -0.71000
O 	O 	0.34260 0.48510 0.33930 -0.79800
O 	O 	0.86530 0.45620 0.34760 -0.77700
O 	O 	0.22050 0.66730 0.40850 -0.86200
O 	O 	0.81450 0.33330 0.56690 -0.81900
O 	O 	0.47410 0.23440 0.39280 -0.87400
O 	O 	0.93420 0.23320 0.41440 -0.83900
O 	O 	0.44210 0.39150 0.68790 -0.78400
O 	O 	0.87850 0.67440 0.56040 -0.88100
O 	O 	0.19130 0.31330 0.81430 -0.73400
O 	O 	0.16700 0.51490 0.66070 -0.80100
O 	O 	0.66910 0.54380 0.65240 -0.78300
O 	O 	0.29630 0.33270 0.59150 -0.85900
O 	O 	0.71470 0.66670 0.43310 -0.83000
O 	O 	0.10130 0.76560 0.60720 -0.88200
O 	O 	0.58180 0.76680 0.58560 -0.85000
O 	O 	0.23700 0.90200 0.59800 -0.92000
O 	O 	0.00900 0.98280 0.51720 -0.95600
O 	O 	0.73700 0.09800 0.40200 -0.89400
O 	O 	0.50900 0.01720 0.48280 -0.90300
F 	F 	0.08650 0.00000 -0.00000 -0.72500
F 	F 	0.58650 0.50000 0.50000 -0.80600
