data_crystal

_cell_length_a 8.62900
_cell_length_b 9.83970
_cell_length_c 24.95000
_cell_angle_alpha 90.51200
_cell_angle_beta  90.00000
_cell_angle_gamma 90.00000

_symmetry_space_group_name_	'P 1'
_symmetry_space_group_name_H-M	'P 1'

loop_
_symmetry_equiv_pos_as_xyz
  x,y,z

loop_
_atom_site_label
_atom_site_type_symbol
_atom_site_fract_x
_atom_site_fract_y
_atom_site_fract_z
_atom_site_charge
Zn	Zn	0.20058 0.68731 0.39875 1.17900
Zn	Zn	0.31487 0.76706 0.07862 1.19900
Zn	Zn	0.70058 0.81269 0.10125 1.18000
Zn	Zn	0.81487 0.73294 0.42138 1.20600
Zn	Zn	0.79942 0.31269 0.60125 1.17800
Zn	Zn	0.68513 0.23294 0.92138 1.20400
Zn	Zn	0.29942 0.18731 0.89875 1.17600
Zn	Zn	0.18513 0.26706 0.57862 1.19500
Zn	Zn	0.50000 0.00000 -0.00000 1.20300
Zn	Zn	0.00000 0.50000 0.50000 1.21800
H 	H 	0.26550 0.31040 0.07090 0.04300
H 	H 	0.97240 0.45830 0.18230 0.12100
H 	H 	0.02190 0.05340 0.16470 0.06200
H 	H 	0.79450 0.14590 0.21510 0.12800
H 	H 	0.78820 0.30270 0.22700 0.13600
H 	H 	0.95800 0.39610 0.29890 0.07300
H 	H 	0.14290 0.14700 0.40680 0.01900
H 	H 	0.93220 0.99600 0.27410 0.10500
H 	H 	0.53030 0.75780 0.01970 0.25200
H 	H 	0.76550 0.18960 0.42910 0.02600
H 	H 	0.47240 0.04170 0.31770 0.05400
H 	H 	0.52190 0.44660 0.33530 0.05200
H 	H 	0.29450 0.35410 0.28490 0.11600
H 	H 	0.28820 0.19730 0.27300 0.11600
H 	H 	0.45800 0.10390 0.20110 0.07300
H 	H 	0.64290 0.35300 0.09320 0.03900
H 	H 	0.43220 0.50400 0.22590 0.07600
H 	H 	0.03030 0.74220 0.48030 0.26500
H 	H 	0.73450 0.68960 0.92910 0.02600
H 	H 	0.02760 0.54170 0.81770 0.01300
H 	H 	0.97810 0.94660 0.83530 0.04300
H 	H 	0.20550 0.85410 0.78490 0.11200
H 	H 	0.21180 0.69730 0.77300 0.10900
H 	H 	0.04200 0.60390 0.70110 0.08800
H 	H 	0.85710 0.85300 0.59320 0.06200
H 	H 	0.06780 0.00400 0.72590 0.03800
H 	H 	0.46970 0.24220 0.98030 0.28000
H 	H 	0.23450 0.81040 0.57090 0.04600
H 	H 	0.52760 0.95830 0.68230 0.09200
H 	H 	0.47810 0.55340 0.66470 0.05900
H 	H 	0.70550 0.64590 0.71510 0.12800
H 	H 	0.71180 0.80270 0.72700 0.13400
H 	H 	0.54200 0.89610 0.79890 0.08900
H 	H 	0.35710 0.64700 0.90680 0.04500
H 	H 	0.56780 0.49600 0.77410 0.07600
H 	H 	0.96970 0.25780 0.51970 0.26700
C 	C 	0.15550 0.16040 0.11456 -0.03600
C 	C 	0.19620 0.29560 0.09880 -0.05200
C 	C 	0.12880 0.40440 0.12666 -0.00600
C 	C 	0.01840 0.38400 0.16537 -0.19600
C 	C 	0.97370 0.24920 0.17986 0.18900
C 	C 	0.04670 0.14150 0.15453 -0.16400
C 	C 	0.85690 0.22490 0.22408 -0.33300
C 	C 	0.93750 0.20230 0.27785 0.12000
C 	C 	0.98060 0.30830 0.30991 -0.05600
C 	C 	0.05630 0.29110 0.35800 -0.11200
C 	C 	0.09060 0.16050 0.37467 0.02700
C 	C 	0.04610 0.04920 0.34305 -0.10700
C 	C 	0.96580 0.06970 0.29456 -0.10700
C 	C 	0.23760 0.04070 0.08918 0.30500
C 	C 	0.17550 0.54700 0.11255 0.29300
C 	C 	0.10570 0.41220 0.39147 0.38200
C 	C 	0.08310 0.90920 0.36196 0.34800
C 	C 	0.65550 0.33960 0.38544 -0.08700
C 	C 	0.69620 0.20440 0.40120 0.01500
C 	C 	0.62880 0.09560 0.37334 -0.09600
C 	C 	0.51840 0.11600 0.33463 -0.06700
C 	C 	0.47370 0.25080 0.32014 0.08800
C 	C 	0.54670 0.35850 0.34547 -0.07400
C 	C 	0.35690 0.27510 0.27592 -0.28000
C 	C 	0.43750 0.29770 0.22215 0.11400
C 	C 	0.48060 0.19170 0.19009 -0.10000
C 	C 	0.55630 0.20890 0.14200 -0.06100
C 	C 	0.59060 0.33950 0.12533 -0.01300
C 	C 	0.54610 0.45080 0.15695 -0.04300
C 	C 	0.46580 0.43030 0.20544 -0.10000
C 	C 	0.73760 0.45930 0.41082 0.37000
C 	C 	0.67550 0.95300 0.38745 0.35200
C 	C 	0.60570 0.08780 0.10853 0.33300
C 	C 	0.58310 0.59080 0.13804 0.30600
C 	C 	0.84450 0.83960 0.88544 -0.12100
C 	C 	0.80380 0.70440 0.90120 0.04600
C 	C 	0.87120 0.59560 0.87334 -0.10800
C 	C 	0.98160 0.61600 0.83463 0.03800
C 	C 	0.02630 0.75080 0.82014 0.00000
C 	C 	0.95330 0.85850 0.84547 0.00500
C 	C 	0.14310 0.77510 0.77592 -0.24100
C 	C 	0.06250 0.79770 0.72215 0.11200
C 	C 	0.01940 0.69170 0.69009 -0.14300
C 	C 	0.94370 0.70890 0.64200 -0.01700
C 	C 	0.90940 0.83950 0.62533 -0.04500
C 	C 	0.95390 0.95080 0.65695 0.01500
C 	C 	0.03420 0.93030 0.70544 -0.08800
C 	C 	0.76240 0.95930 0.91082 0.41900
C 	C 	0.82450 0.45300 0.88745 0.33800
C 	C 	0.89430 0.58780 0.60853 0.35700
C 	C 	0.91690 0.09080 0.63804 0.27100
C 	C 	0.34450 0.66040 0.61456 -0.06400
C 	C 	0.30380 0.79560 0.59880 -0.03100
C 	C 	0.37120 0.90440 0.62666 -0.00600
C 	C 	0.48160 0.88400 0.66537 -0.11800
C 	C 	0.52630 0.74920 0.67986 0.12200
C 	C 	0.45330 0.64150 0.65453 -0.10100
C 	C 	0.64310 0.72490 0.72408 -0.30800
C 	C 	0.56250 0.70230 0.77785 0.12600
C 	C 	0.51940 0.80830 0.80991 -0.09900
C 	C 	0.44370 0.79110 0.85800 -0.06900
C 	C 	0.40940 0.66050 0.87467 -0.00800
C 	C 	0.45390 0.54920 0.84305 -0.04100
C 	C 	0.53420 0.56970 0.79456 -0.10500
C 	C 	0.26240 0.54070 0.58918 0.35900
C 	C 	0.32450 0.04700 0.61255 0.27400
C 	C 	0.39430 0.91220 0.89147 0.40400
C 	C 	0.41690 0.40920 0.86196 0.30500
O 	O 	0.23780 0.93330 0.11345 -0.45900
O 	O 	0.29250 0.06040 0.04199 -0.49600
O 	O 	0.29080 0.56550 0.08047 -0.45600
O 	O 	0.11660 0.64510 0.13418 -0.37300
O 	O 	0.12300 0.52160 0.36520 -0.50900
O 	O 	0.13100 0.39780 0.43934 -0.50500
O 	O 	0.18560 0.89570 0.39816 -0.45800
O 	O 	0.01100 0.80980 0.34484 -0.42500
O 	O 	0.51120 0.81980 0.04252 -0.84000
O 	O 	0.73780 0.56670 0.38655 -0.49300
O 	O 	0.79250 0.43960 0.45801 -0.47700
O 	O 	0.79080 0.93450 0.41953 -0.44200
O 	O 	0.61660 0.85490 0.36582 -0.37200
O 	O 	0.62300 0.97840 0.13480 -0.46500
O 	O 	0.63100 0.10220 0.06066 -0.50500
O 	O 	0.68560 0.60430 0.10184 -0.46000
O 	O 	0.51100 0.69020 0.15516 -0.40700
O 	O 	0.01120 0.68020 0.45748 -0.85700
O 	O 	0.76220 0.06670 0.88655 -0.53100
O 	O 	0.70750 0.93960 0.95801 -0.46100
O 	O 	0.70920 0.43450 0.91953 -0.44900
O 	O 	0.88340 0.35490 0.86582 -0.37100
O 	O 	0.87700 0.47840 0.63480 -0.49300
O 	O 	0.86900 0.60220 0.56066 -0.48300
O 	O 	0.81440 0.10430 0.60184 -0.45900
O 	O 	0.98900 0.19020 0.65516 -0.39100
O 	O 	0.48880 0.18020 0.95748 -0.84700
O 	O 	0.26220 0.43330 0.61345 -0.50400
O 	O 	0.20750 0.56040 0.54199 -0.48600
O 	O 	0.20920 0.06550 0.58047 -0.46500
O 	O 	0.38340 0.14510 0.63418 -0.37300
O 	O 	0.37700 0.02160 0.86520 -0.53700
O 	O 	0.36900 0.89780 0.93934 -0.47800
O 	O 	0.31440 0.39570 0.89816 -0.45700
O 	O 	0.48900 0.30980 0.84484 -0.41200
O 	O 	0.98880 0.31980 0.54252 -0.83500
