data_crystal

_cell_length_a 14.81530
_cell_length_b 14.81530
_cell_length_c 14.81530
_cell_angle_alpha 109.47100
_cell_angle_beta  109.47100
_cell_angle_gamma 109.47100

_symmetry_space_group_name_	'P 1'
_symmetry_space_group_name_H-M	'P 1'

loop_
_symmetry_equiv_pos_as_xyz
  x,y,z

loop_
_atom_site_label
_atom_site_type_symbol
_atom_site_fract_x
_atom_site_fract_y
_atom_site_fract_z
_atom_site_charge
Zn	Zn	0.25000 0.75000 0.50000 1.17300
Zn	Zn	0.75000 0.25000 0.50000 1.17300
Zn	Zn	0.50000 0.75000 0.25000 1.17300
Zn	Zn	0.50000 0.25000 0.75000 1.17300
Zn	Zn	0.75000 0.50000 0.25000 1.17300
Zn	Zn	0.25000 0.50000 0.75000 1.17300
H 	H 	0.47488 0.71911 0.57827 0.00000
H 	H 	0.52512 0.10339 0.24422 0.00200
H 	H 	0.85917 0.28089 0.75578 -0.00300
H 	H 	0.75578 0.85917 0.28089 0.00000
H 	H 	0.42173 0.14083 0.89661 0.00100
H 	H 	0.57827 0.47488 0.71911 0.00000
H 	H 	0.71911 0.57827 0.47488 0.00100
H 	H 	0.89661 0.42173 0.14083 0.00100
H 	H 	0.28089 0.75578 0.85917 -0.00000
H 	H 	0.10339 0.24422 0.52512 -0.00100
H 	H 	0.71911 0.47488 0.57827 0.00000
H 	H 	0.28089 0.85917 0.75578 0.00000
H 	H 	0.10339 0.52512 0.24422 -0.00100
H 	H 	0.14083 0.42173 0.89661 0.00200
H 	H 	0.47488 0.57827 0.71911 0.00000
H 	H 	0.52512 0.24422 0.10339 0.00100
H 	H 	0.85917 0.75578 0.28089 -0.00100
H 	H 	0.24422 0.10339 0.52512 0.00100
H 	H 	0.75578 0.28089 0.85917 -0.00300
H 	H 	0.57827 0.71911 0.47488 -0.00100
H 	H 	0.54494 0.03429 0.70858 0.04300
H 	H 	0.44672 0.91187 0.70271 0.02900
H 	H 	0.49412 0.05384 0.80894 0.04800
H 	H 	0.20270 0.66771 0.21232 0.05500
H 	H 	0.32184 0.79067 0.24053 0.03100
H 	H 	0.25524 0.80717 0.32692 0.03400
H 	H 	0.80884 0.05221 0.49283 0.04800
H 	H 	0.70139 0.91163 0.44740 0.02800
H 	H 	0.70999 0.03615 0.54555 0.04300
H 	H 	0.47108 0.15688 0.46791 0.04700
H 	H 	0.56111 0.29150 0.48579 0.04200
H 	H 	0.48203 0.28606 0.56051 0.04000
H 	H 	0.43889 0.73039 0.92469 0.03500
H 	H 	0.52892 0.68580 0.99683 0.03800
H 	H 	0.51797 0.80403 0.07848 0.03800
H 	H 	0.55329 0.46515 0.25599 0.03200
H 	H 	0.45506 0.48936 0.16364 0.04500
H 	H 	0.50587 0.55971 0.31481 0.04900
H 	H 	0.67816 0.46883 0.91869 0.02400
H 	H 	0.79730 0.46501 0.00963 0.05300
H 	H 	0.74476 0.55194 0.07168 0.03300
H 	H 	0.29861 0.21024 0.74600 0.03100
H 	H 	0.19116 0.24337 0.68399 0.05000
H 	H 	0.29001 0.32616 0.83556 0.04200
H 	H 	0.71302 0.27365 0.19567 0.04000
H 	H 	0.70939 0.19455 0.27042 0.04200
H 	H 	0.84315 0.31157 0.31369 0.04500
H 	H 	0.91165 0.69033 0.45481 0.02300
H 	H 	0.03604 0.80629 0.48105 0.05200
H 	H 	0.05231 0.72361 0.54992 0.04000
H 	H 	0.29061 0.48516 0.56103 0.04200
H 	H 	0.28698 0.56063 0.48265 0.04000
H 	H 	0.15685 0.46843 0.47054 0.04700
H 	H 	0.95557 0.44251 0.76352 0.04200
H 	H 	0.95557 0.50359 0.67220 0.03400
H 	H 	0.08885 0.53968 0.78450 0.02700
C 	C 	0.22447 0.94373 0.50042 -0.01400
C 	C 	0.44331 0.72405 0.49958 -0.01100
C 	C 	0.55669 0.05627 0.28074 -0.00800
C 	C 	0.77553 0.27595 0.71926 -0.01300
C 	C 	0.28074 0.55669 0.05627 -0.00200
C 	C 	0.71926 0.77553 0.27595 -0.01000
C 	C 	0.50042 0.22447 0.94373 -0.02000
C 	C 	0.49958 0.44331 0.72405 -0.01100
C 	C 	0.72405 0.49958 0.44331 -0.01000
C 	C 	0.94373 0.50042 0.22447 -0.02000
C 	C 	0.27595 0.71926 0.77553 -0.01100
C 	C 	0.05627 0.28074 0.55669 -0.00300
C 	C 	0.72405 0.44331 0.49958 -0.01200
C 	C 	0.94373 0.22447 0.50042 -0.02000
C 	C 	0.27595 0.77553 0.71926 -0.01100
C 	C 	0.05627 0.55669 0.28074 -0.00200
C 	C 	0.22447 0.50042 0.94373 -0.01900
C 	C 	0.44331 0.49958 0.72405 -0.01100
C 	C 	0.55669 0.28074 0.05627 -0.00200
C 	C 	0.77553 0.71926 0.27595 -0.01000
C 	C 	0.28074 0.05627 0.55669 -0.00700
C 	C 	0.71926 0.27595 0.77553 -0.01100
C 	C 	0.50042 0.94373 0.22447 -0.01100
C 	C 	0.49958 0.72405 0.44331 -0.01100
C 	C 	0.37546 -0.00000 0.64190 0.13700
C 	C 	0.47108 -0.00000 0.72026 -0.23600
C 	C 	0.35810 0.73356 0.35810 0.13400
C 	C 	0.27974 0.75082 0.27974 -0.23400
C 	C 	0.64190 -0.00000 0.37546 0.13700
C 	C 	0.72026 0.00000 0.47108 -0.23600
C 	C 	0.62454 0.26644 0.62454 0.13500
C 	C 	0.52892 0.24918 0.52892 -0.24200
C 	C 	0.37546 0.64190 -0.00000 0.13900
C 	C 	0.47108 0.72026 -0.00000 -0.22700
C 	C 	0.62454 0.62454 0.26644 0.13500
C 	C 	0.52892 0.52892 0.24918 -0.23900
C 	C 	0.64190 0.37546 -0.00000 0.13900
C 	C 	0.72026 0.47108 -0.00000 -0.22700
C 	C 	0.35810 0.35810 0.73356 0.13500
C 	C 	0.27974 0.27974 0.75082 -0.23800
C 	C 	0.73356 0.35810 0.35810 0.13500
C 	C 	0.75082 0.27974 0.27974 -0.24200
C 	C 	-0.00000 0.64190 0.37546 0.13900
C 	C 	-0.00000 0.72026 0.47108 -0.22900
C 	C 	0.26644 0.62454 0.62454 0.13600
C 	C 	0.24918 0.52892 0.52892 -0.24200
C 	C 	-0.00000 0.37546 0.64190 0.13700
C 	C 	-0.00000 0.47108 0.72026 -0.22100
N 	N 	0.28571 0.90729 0.55512 -0.29300
N 	N 	0.35217 0.73059 0.44488 -0.29200
N 	N 	0.64783 0.09271 0.37842 -0.29300
N 	N 	0.71429 0.26941 0.62158 -0.29300
N 	N 	0.37842 0.64783 0.09271 -0.29300
N 	N 	0.62158 0.71429 0.26941 -0.29200
N 	N 	0.55512 0.28571 0.90729 -0.29400
N 	N 	0.44488 0.35217 0.73059 -0.29200
N 	N 	0.73059 0.44488 0.35217 -0.29300
N 	N 	0.90729 0.55512 0.28571 -0.29400
N 	N 	0.26941 0.62158 0.71429 -0.29300
N 	N 	0.09271 0.37842 0.64783 -0.29300
N 	N 	0.73059 0.35217 0.44488 -0.29300
N 	N 	0.90729 0.28571 0.55512 -0.29500
N 	N 	0.26941 0.71429 0.62158 -0.29300
N 	N 	0.09271 0.64783 0.37842 -0.29400
N 	N 	0.28571 0.55512 0.90729 -0.29400
N 	N 	0.35217 0.44488 0.73059 -0.29300
N 	N 	0.64783 0.37842 0.09271 -0.29400
N 	N 	0.71429 0.62158 0.26941 -0.29200
N 	N 	0.37842 0.09271 0.64783 -0.29300
N 	N 	0.62158 0.26941 0.71429 -0.29300
N 	N 	0.55512 0.90729 0.28571 -0.29300
N 	N 	0.44488 0.73059 0.35217 -0.29200
