data_crystal

_cell_length_a 10.85370
_cell_length_b 10.85370
_cell_length_c 18.34000
_cell_angle_alpha 90.00000
_cell_angle_beta  90.00000
_cell_angle_gamma 116.48000

_symmetry_space_group_name_	'P 1'
_symmetry_space_group_name_H-M	'P 1'

loop_
_symmetry_equiv_pos_as_xyz
  x,y,z

loop_
_atom_site_label
_atom_site_type_symbol
_atom_site_fract_x
_atom_site_fract_y
_atom_site_fract_z
_atom_site_charge
Zn	Zn	0.66877 0.33123 0.75000 1.21600
Zn	Zn	0.83123 0.16877 0.75000 1.21600
Zn	Zn	0.33123 0.66877 0.25000 1.21600
Zn	Zn	0.16877 0.83123 0.25000 1.21600
H 	H 	0.38300 0.09420 0.93280 0.04500
H 	H 	0.69370 0.99090 0.95070 0.05100
H 	H 	0.41910 0.32370 0.82160 0.00300
H 	H 	0.28130 0.43970 0.81820 0.07900
H 	H 	0.13500 0.50820 0.75190 0.05700
H 	H 	0.11700 0.40580 0.93280 0.04600
H 	H 	0.80630 0.50910 0.95070 0.05100
H 	H 	0.08090 0.17630 0.82160 0.00300
H 	H 	0.21870 0.06030 0.81820 0.07700
H 	H 	0.36500 0.99180 0.75190 0.05600
H 	H 	0.90580 0.61700 0.56720 0.04500
H 	H 	0.00910 0.30630 0.54930 0.05000
H 	H 	0.67630 0.58090 0.67840 0.00200
H 	H 	0.56030 0.71870 0.68180 0.07800
H 	H 	0.49180 0.86500 0.74810 0.05600
H 	H 	0.59420 0.88300 0.56720 0.04500
H 	H 	0.49090 0.19370 0.54930 0.05000
H 	H 	0.82370 0.91910 0.67840 0.00200
H 	H 	0.93970 0.78130 0.68180 0.07700
H 	H 	0.00820 0.63500 0.74810 0.05600
H 	H 	0.61700 0.90580 0.06720 0.04400
H 	H 	0.30630 0.00910 0.04930 0.05000
H 	H 	0.58090 0.67630 0.17840 0.00200
H 	H 	0.71870 0.56030 0.18180 0.07800
H 	H 	0.86500 0.49180 0.24810 0.05600
H 	H 	0.88300 0.59420 0.06720 0.04500
H 	H 	0.19370 0.49090 0.04930 0.05000
H 	H 	0.91910 0.82370 0.17840 0.00200
H 	H 	0.78130 0.93970 0.18180 0.07700
H 	H 	0.63500 0.00820 0.24810 0.05600
H 	H 	0.09420 0.38300 0.43280 0.04500
H 	H 	0.99090 0.69370 0.45070 0.05000
H 	H 	0.32370 0.41910 0.32160 0.00200
H 	H 	0.43970 0.28130 0.31820 0.07800
H 	H 	0.50820 0.13500 0.25190 0.05600
H 	H 	0.40580 0.11700 0.43280 0.04500
H 	H 	0.50910 0.80630 0.45070 0.05000
H 	H 	0.17630 0.08090 0.32160 0.00200
H 	H 	0.06030 0.21870 0.31820 0.07700
H 	H 	0.99180 0.36500 0.25190 0.05600
C 	C 	0.60070 0.11310 0.85700 0.36400
C 	C 	0.54660 0.05320 0.93040 -0.07700
C 	C 	0.43250 0.05570 0.96040 -0.00900
C 	C 	0.61410 0.99570 0.97050 -0.01700
C 	C 	0.44600 0.40300 0.79080 0.07200
C 	C 	0.36500 0.47400 0.79050 -0.13000
C 	C 	0.18210 0.60690 0.75060 -0.04100
C 	C 	0.89930 0.38690 0.85700 0.36400
C 	C 	0.95340 0.44680 0.93040 -0.07700
C 	C 	0.06750 0.44430 0.96040 -0.01300
C 	C 	0.88590 0.50430 0.97050 -0.01300
C 	C 	0.05400 0.09700 0.79080 0.07000
C 	C 	0.13500 0.02600 0.79050 -0.12900
C 	C 	0.31790 0.89310 0.75060 -0.04100
C 	C 	0.88690 0.39930 0.64300 0.36400
C 	C 	0.94680 0.45340 0.56960 -0.07800
C 	C 	0.94430 0.56750 0.53960 -0.01000
C 	C 	0.00430 0.38590 0.52950 -0.01500
C 	C 	0.59700 0.55400 0.70920 0.07200
C 	C 	0.52600 0.63500 0.70950 -0.13000
C 	C 	0.39310 0.81790 0.74940 -0.04100
C 	C 	0.61310 0.10070 0.64300 0.36400
C 	C 	0.55320 0.04660 0.56960 -0.07800
C 	C 	0.55570 0.93250 0.53960 -0.01100
C 	C 	0.49570 0.11410 0.52950 -0.01400
C 	C 	0.90300 0.94600 0.70920 0.07000
C 	C 	0.97400 0.86500 0.70950 -0.12900
C 	C 	0.10690 0.68210 0.74940 -0.04100
C 	C 	0.39930 0.88690 0.14300 0.36400
C 	C 	0.45340 0.94680 0.06960 -0.07700
C 	C 	0.56750 0.94430 0.03960 -0.00900
C 	C 	0.38590 0.00430 0.02950 -0.01700
C 	C 	0.55400 0.59700 0.20920 0.07200
C 	C 	0.63500 0.52600 0.20950 -0.13000
C 	C 	0.81790 0.39310 0.24940 -0.04100
C 	C 	0.10070 0.61310 0.14300 0.36400
C 	C 	0.04660 0.55320 0.06960 -0.07700
C 	C 	0.93250 0.55570 0.03960 -0.01300
C 	C 	0.11410 0.49570 0.02950 -0.01300
C 	C 	0.94600 0.90300 0.20920 0.07000
C 	C 	0.86500 0.97400 0.20950 -0.12900
C 	C 	0.68210 0.10690 0.24940 -0.04100
C 	C 	0.11310 0.60070 0.35700 0.36400
C 	C 	0.05320 0.54660 0.43040 -0.07800
C 	C 	0.05570 0.43250 0.46040 -0.01000
C 	C 	0.99570 0.61410 0.47050 -0.01500
C 	C 	0.40300 0.44600 0.29080 0.07200
C 	C 	0.47400 0.36500 0.29050 -0.13000
C 	C 	0.60690 0.18210 0.25060 -0.04100
C 	C 	0.38690 0.89930 0.35700 0.36400
C 	C 	0.44680 0.95340 0.43040 -0.07800
C 	C 	0.44430 0.06750 0.46040 -0.01100
C 	C 	0.50430 0.88590 0.47050 -0.01400
C 	C 	0.09700 0.05400 0.29080 0.07000
C 	C 	0.02600 0.13500 0.29050 -0.12900
C 	C 	0.89310 0.31790 0.25060 -0.04100
C 	C 	0.40610 0.59390 0.75000 0.07700
C 	C 	0.32600 0.67400 0.75000 -0.00600
C 	C 	0.09390 0.90610 0.75000 0.07600
C 	C 	0.17400 0.82600 0.75000 -0.00500
C 	C 	0.59390 0.40610 0.25000 0.07700
C 	C 	0.67400 0.32600 0.25000 -0.00600
C 	C 	0.90610 0.09390 0.25000 0.07600
C 	C 	0.82600 0.17400 0.25000 -0.00500
N 	N 	0.55880 0.44120 0.75000 -0.25200
N 	N 	0.94120 0.05880 0.75000 -0.25000
N 	N 	0.44120 0.55880 0.25000 -0.25200
N 	N 	0.05880 0.94120 0.25000 -0.25000
O 	O 	0.55202 0.18638 0.82691 -0.44400
O 	O 	0.69392 0.08568 0.83086 -0.46600
O 	O 	0.94798 0.31362 0.82691 -0.44400
O 	O 	0.80608 0.41432 0.83086 -0.46700
O 	O 	0.81362 0.44798 0.67309 -0.44400
O 	O 	0.91432 0.30608 0.66914 -0.46700
O 	O 	0.68638 0.05202 0.67309 -0.44400
O 	O 	0.58568 0.19392 0.66914 -0.46700
O 	O 	0.44798 0.81362 0.17309 -0.44400
O 	O 	0.30608 0.91432 0.16914 -0.46600
O 	O 	0.05202 0.68638 0.17309 -0.44400
O 	O 	0.19392 0.58568 0.16914 -0.46700
O 	O 	0.18638 0.55202 0.32691 -0.44400
O 	O 	0.08568 0.69392 0.33086 -0.46700
O 	O 	0.31362 0.94798 0.32691 -0.44400
O 	O 	0.41432 0.80608 0.33086 -0.46700
