data_crystal

_cell_length_a 13.68830
_cell_length_b 18.27270
_cell_length_c 24.97200
_cell_angle_alpha 101.09700
_cell_angle_beta  90.00000
_cell_angle_gamma 90.00000

_symmetry_space_group_name_	'P 1'
_symmetry_space_group_name_H-M	'P 1'

loop_
_symmetry_equiv_pos_as_xyz
  x,y,z

loop_
_atom_site_label
_atom_site_type_symbol
_atom_site_fract_x
_atom_site_fract_y
_atom_site_fract_z
_atom_site_charge
Zn	Zn	0.18535 0.62818 0.34769 1.21400
Zn	Zn	0.89465 0.77272 0.96160 1.15500
Zn	Zn	0.78730 0.07078 0.33866 1.16400
Zn	Zn	0.68535 0.87182 0.65231 1.21400
Zn	Zn	0.39465 0.72728 0.03840 1.15500
Zn	Zn	0.28730 0.42922 0.66134 1.16300
Zn	Zn	0.81465 0.37182 0.65231 1.21300
Zn	Zn	0.10535 0.22728 0.03840 1.15400
Zn	Zn	0.21270 0.92922 0.66134 1.16300
Zn	Zn	0.31465 0.12818 0.34769 1.21300
Zn	Zn	0.60535 0.27272 0.96160 1.15500
Zn	Zn	0.71270 0.57078 0.33866 1.16300
H 	H 	0.01950 0.61380 0.15440 0.13100
H 	H 	0.88670 0.49030 0.02440 0.13400
H 	H 	0.88760 0.42270 0.16810 0.13200
H 	H 	0.11640 0.58980 0.22380 -0.00900
H 	H 	0.98710 0.53000 0.34770 0.02600
H 	H 	0.88930 0.48050 0.26700 0.00500
H 	H 	0.86860 0.61810 0.00350 -0.03100
H 	H 	0.08930 0.75460 0.03180 -0.00300
H 	H 	0.11090 0.66320 0.08900 0.01500
H 	H 	0.74290 0.41570 0.00880 -0.05000
H 	H 	0.72670 0.23010 0.06360 0.00500
H 	H 	0.84860 0.30750 0.11810 0.01900
H 	H 	0.50240 0.35480 0.31710 0.12500
H 	H 	0.54150 0.26910 0.45210 0.13700
H 	H 	0.40510 0.46590 0.46180 0.13800
H 	H 	0.28320 0.50880 0.40500 -0.01600
H 	H 	0.37750 0.56970 0.27190 0.01700
H 	H 	0.49050 0.47610 0.29160 -0.01000
H 	H 	0.63740 0.18720 0.40460 -0.02100
H 	H 	0.57860 0.25760 0.26850 0.01700
H 	H 	0.69350 0.15500 0.24910 -0.00700
H 	H 	0.32380 0.42210 0.53750 -0.01300
H 	H 	0.49340 0.34220 0.63750 -0.00800
H 	H 	0.57370 0.31820 0.54900 0.04500
H 	H 	0.09570 0.70170 0.52600 0.08400
H 	H 	0.26200 0.69760 0.54940 0.05100
H 	H 	0.25730 0.61030 0.54100 0.05500
H 	H 	0.24680 0.66030 0.63210 0.05300
H 	H 	0.15720 0.70920 0.62190 0.03400
H 	H 	0.09290 0.61410 0.65430 0.06400
H 	H 	0.99110 0.63490 0.58800 0.04800
H 	H 	0.99870 0.54780 0.57840 0.05300
H 	H 	0.09970 0.54470 0.50680 0.06300
H 	H 	0.00830 0.59240 0.49770 0.06000
H 	H 	0.20840 0.83790 0.28870 0.09000
H 	H 	0.20420 0.74860 0.18280 0.04600
H 	H 	0.11270 0.78640 0.21450 0.03000
H 	H 	0.16960 0.90410 0.20800 0.04700
H 	H 	0.16540 0.85500 0.14920 0.05100
H 	H 	0.31100 0.92440 0.16590 0.05800
H 	H 	0.42850 0.88730 0.22440 0.06600
H 	H 	0.33640 0.92480 0.25570 0.05400
H 	H 	0.37330 0.76990 0.23150 0.04800
H 	H 	0.37570 0.81960 0.29020 0.03400
H 	H 	0.51950 0.88620 0.84560 0.13200
H 	H 	0.38670 0.00970 0.97560 0.13400
H 	H 	0.38760 0.07730 0.83190 0.13100
H 	H 	0.61640 0.91020 0.77620 -0.01000
H 	H 	0.48710 0.97000 0.65230 0.02400
H 	H 	0.38930 0.01950 0.73300 0.00700
H 	H 	0.36860 0.88190 0.99650 -0.03100
H 	H 	0.58930 0.74540 0.96820 -0.00400
H 	H 	0.61090 0.83680 0.91100 0.01400
H 	H 	0.24290 0.08430 0.99120 -0.04900
H 	H 	0.22670 0.26990 0.93640 0.00500
H 	H 	0.34860 0.19250 0.88190 0.01900
H 	H 	0.00240 0.14520 0.68290 0.12700
H 	H 	0.04150 0.23090 0.54790 0.13800
H 	H 	0.90510 0.03410 0.53820 0.13900
H 	H 	0.78320 0.99120 0.59500 -0.01600
H 	H 	0.87750 0.93030 0.72810 0.01700
H 	H 	0.99050 0.02390 0.70840 -0.01100
H 	H 	0.13740 0.31280 0.59540 -0.02200
H 	H 	0.07860 0.24240 0.73150 0.01700
H 	H 	0.19350 0.34500 0.75090 -0.00700
H 	H 	0.82380 0.07790 0.46250 -0.01300
H 	H 	0.99340 0.15780 0.36250 -0.00800
H 	H 	0.07370 0.18180 0.45100 0.04500
H 	H 	0.59570 0.79830 0.47400 0.08400
H 	H 	0.76200 0.80240 0.45060 0.05100
H 	H 	0.75730 0.88970 0.45900 0.05500
H 	H 	0.74680 0.83970 0.36790 0.05300
H 	H 	0.65720 0.79080 0.37810 0.03400
H 	H 	0.59290 0.88590 0.34570 0.06400
H 	H 	0.49110 0.86510 0.41200 0.04900
H 	H 	0.49870 0.95220 0.42160 0.05400
H 	H 	0.59970 0.95530 0.49320 0.06300
H 	H 	0.50830 0.90760 0.50230 0.05900
H 	H 	0.70840 0.66210 0.71130 0.09000
H 	H 	0.70420 0.75140 0.81720 0.04600
H 	H 	0.61270 0.71360 0.78550 0.03000
H 	H 	0.66960 0.59590 0.79200 0.04700
H 	H 	0.66540 0.64500 0.85080 0.05100
H 	H 	0.81100 0.57560 0.83410 0.05800
H 	H 	0.92850 0.61270 0.77560 0.06500
H 	H 	0.83640 0.57520 0.74430 0.05300
H 	H 	0.87330 0.73010 0.76850 0.04700
H 	H 	0.87570 0.68040 0.70980 0.03400
H 	H 	0.98050 0.38620 0.84560 0.13100
H 	H 	0.11330 0.50970 0.97560 0.13400
H 	H 	0.11240 0.57730 0.83190 0.13200
H 	H 	0.88360 0.41020 0.77620 -0.00900
H 	H 	0.01290 0.47000 0.65230 0.02600
H 	H 	0.11070 0.51950 0.73300 0.00500
H 	H 	0.13140 0.38190 0.99650 -0.03100
H 	H 	0.91070 0.24540 0.96820 -0.00300
H 	H 	0.88910 0.33680 0.91100 0.01500
H 	H 	0.25710 0.58430 0.99120 -0.05000
H 	H 	0.27330 0.76990 0.93640 0.00500
H 	H 	0.15140 0.69250 0.88190 0.01900
H 	H 	0.49760 0.64520 0.68290 0.12500
H 	H 	0.45850 0.73090 0.54790 0.13700
H 	H 	0.59490 0.53410 0.53820 0.13800
H 	H 	0.71680 0.49120 0.59500 -0.01600
H 	H 	0.62250 0.43030 0.72810 0.01700
H 	H 	0.50950 0.52390 0.70840 -0.01000
H 	H 	0.36260 0.81280 0.59540 -0.02100
H 	H 	0.42140 0.74240 0.73150 0.01700
H 	H 	0.30650 0.84500 0.75090 -0.00700
H 	H 	0.67620 0.57790 0.46250 -0.01300
H 	H 	0.50660 0.65780 0.36250 -0.00800
H 	H 	0.42630 0.68180 0.45100 0.04500
H 	H 	0.90430 0.29830 0.47400 0.08400
H 	H 	0.73800 0.30240 0.45060 0.05100
H 	H 	0.74270 0.38970 0.45900 0.05500
H 	H 	0.75320 0.33970 0.36790 0.05300
H 	H 	0.84280 0.29080 0.37810 0.03400
H 	H 	0.90710 0.38590 0.34570 0.06400
H 	H 	0.00890 0.36510 0.41200 0.04800
H 	H 	0.00130 0.45220 0.42160 0.05300
H 	H 	0.90030 0.45530 0.49320 0.06300
H 	H 	0.99170 0.40760 0.50230 0.06000
H 	H 	0.79160 0.16210 0.71130 0.09000
H 	H 	0.79580 0.25140 0.81720 0.04600
H 	H 	0.88730 0.21360 0.78550 0.03000
H 	H 	0.83040 0.09590 0.79200 0.04700
H 	H 	0.83460 0.14500 0.85080 0.05100
H 	H 	0.68900 0.07560 0.83410 0.05800
H 	H 	0.57150 0.11270 0.77560 0.06600
H 	H 	0.66360 0.07520 0.74430 0.05400
H 	H 	0.62670 0.23010 0.76850 0.04800
H 	H 	0.62430 0.18040 0.70980 0.03400
H 	H 	0.48050 0.11380 0.15440 0.13200
H 	H 	0.61330 0.99030 0.02440 0.13400
H 	H 	0.61240 0.92270 0.16810 0.13100
H 	H 	0.38360 0.08980 0.22380 -0.01000
H 	H 	0.51290 0.03000 0.34770 0.02400
H 	H 	0.61070 0.98050 0.26700 0.00700
H 	H 	0.63140 0.11810 0.00350 -0.03100
H 	H 	0.41070 0.25460 0.03180 -0.00400
H 	H 	0.38910 0.16320 0.08900 0.01400
H 	H 	0.75710 0.91570 0.00880 -0.04900
H 	H 	0.77330 0.73010 0.06360 0.00500
H 	H 	0.65140 0.80750 0.11810 0.01900
H 	H 	0.99760 0.85480 0.31710 0.12700
H 	H 	0.95850 0.76910 0.45210 0.13800
H 	H 	0.09490 0.96590 0.46180 0.13900
H 	H 	0.21680 0.00880 0.40500 -0.01600
H 	H 	0.12250 0.06970 0.27190 0.01700
H 	H 	0.00950 0.97610 0.29160 -0.01100
H 	H 	0.86260 0.68720 0.40460 -0.02200
H 	H 	0.92140 0.75760 0.26850 0.01700
H 	H 	0.80650 0.65500 0.24910 -0.00700
H 	H 	0.17620 0.92210 0.53750 -0.01300
H 	H 	0.00660 0.84220 0.63750 -0.00800
H 	H 	0.92630 0.81820 0.54900 0.04500
H 	H 	0.40430 0.20170 0.52600 0.08400
H 	H 	0.23800 0.19760 0.54940 0.05100
H 	H 	0.24270 0.11030 0.54100 0.05500
H 	H 	0.25320 0.16030 0.63210 0.05300
H 	H 	0.34280 0.20920 0.62190 0.03400
H 	H 	0.40710 0.11410 0.65430 0.06400
H 	H 	0.50890 0.13490 0.58800 0.04900
H 	H 	0.50130 0.04780 0.57840 0.05400
H 	H 	0.40030 0.04470 0.50680 0.06300
H 	H 	0.49170 0.09240 0.49770 0.05900
H 	H 	0.29160 0.33790 0.28870 0.09000
H 	H 	0.29580 0.24860 0.18280 0.04600
H 	H 	0.38730 0.28640 0.21450 0.03000
H 	H 	0.33040 0.40410 0.20800 0.04700
H 	H 	0.33460 0.35500 0.14920 0.05100
H 	H 	0.18900 0.42440 0.16590 0.05800
H 	H 	0.07150 0.38730 0.22440 0.06500
H 	H 	0.16360 0.42480 0.25570 0.05300
H 	H 	0.12670 0.26990 0.23150 0.04700
H 	H 	0.12430 0.31960 0.29020 0.03400
C 	C 	0.96100 0.51930 0.16958 0.22400
C 	C 	0.98480 0.57120 0.13886 -0.29500
C 	C 	0.95730 0.56030 0.08511 0.22600
C 	C 	0.90390 0.49820 0.06111 -0.29500
C 	C 	0.87710 0.44870 0.09353 0.22500
C 	C 	0.90540 0.45750 0.14718 -0.29300
C 	C 	0.07220 0.56890 0.24488 0.09900
C 	C 	0.00110 0.53580 0.31236 -0.01000
C 	C 	0.94640 0.50840 0.26805 -0.00000
C 	C 	0.92640 0.64080 0.01749 0.11500
C 	C 	0.04710 0.71510 0.03330 -0.01400
C 	C 	0.05960 0.66500 0.06480 0.00400
C 	C 	0.75300 0.37900 0.02932 0.10200
C 	C 	0.74500 0.27770 0.05950 -0.01500
C 	C 	0.81240 0.32020 0.08980 -0.00500
C 	C 	0.44370 0.41790 0.38555 0.22700
C 	C 	0.49400 0.35780 0.35441 -0.28000
C 	C 	0.53080 0.30330 0.37967 0.22500
C 	C 	0.51770 0.30660 0.43518 -0.28600
C 	C 	0.46820 0.36710 0.46476 0.23200
C 	C 	0.43420 0.42400 0.44079 -0.29200
C 	C 	0.32060 0.51270 0.37461 0.09800
C 	C 	0.37310 0.54570 0.30140 -0.01400
C 	C 	0.43570 0.49400 0.31195 0.00100
C 	C 	0.63790 0.19220 0.36820 0.10800
C 	C 	0.60450 0.23130 0.29358 0.00400
C 	C 	0.66810 0.17490 0.28340 -0.00600
C 	C 	0.37620 0.39940 0.55151 0.11000
C 	C 	0.46930 0.35540 0.60589 0.00700
C 	C 	0.51400 0.34210 0.55722 -0.00800
C 	C 	0.13210 0.65530 0.51372 -0.15800
C 	C 	0.21990 0.65580 0.55220 -0.05900
C 	C 	0.18920 0.66160 0.60970 -0.06600
C 	C 	0.12080 0.59980 0.61770 -0.12400
C 	C 	0.03490 0.59300 0.57690 -0.07200
C 	C 	0.06590 0.59130 0.52010 -0.05700
C 	C 	0.16600 0.65470 0.45530 0.42000
C 	C 	0.17700 0.52570 0.61600 0.35400
C 	C 	0.23610 0.79680 0.26199 -0.15400
C 	C 	0.18200 0.79220 0.20850 -0.04100
C 	C 	0.19820 0.86120 0.18420 -0.08900
C 	C 	0.30560 0.87570 0.17660 -0.09900
C 	C 	0.35920 0.88110 0.23030 -0.09400
C 	C 	0.34360 0.81260 0.25490 -0.04100
C 	C 	0.22660 0.72590 0.28400 0.33800
C 	C 	0.35470 0.81720 0.13060 0.33400
C 	C 	0.46100 0.98070 0.83042 0.22300
C 	C 	0.48480 0.92880 0.86114 -0.29700
C 	C 	0.45730 0.93970 0.91489 0.22500
C 	C 	0.40390 0.00180 0.93889 -0.29300
C 	C 	0.37710 0.05130 0.90647 0.22400
C 	C 	0.40540 0.04250 0.85282 -0.29100
C 	C 	0.57220 0.93110 0.75512 0.10000
C 	C 	0.50110 0.96420 0.68764 -0.00600
C 	C 	0.44640 0.99160 0.73195 -0.00500
C 	C 	0.42640 0.85920 0.98251 0.11400
C 	C 	0.54710 0.78490 0.96670 -0.01200
C 	C 	0.55960 0.83500 0.93520 0.00500
C 	C 	0.25300 0.12100 0.97068 0.10200
C 	C 	0.24500 0.22230 0.94050 -0.01500
C 	C 	0.31240 0.17980 0.91020 -0.00500
C 	C 	0.94370 0.08210 0.61445 0.22800
C 	C 	0.99400 0.14220 0.64559 -0.28300
C 	C 	0.03080 0.19670 0.62033 0.22700
C 	C 	0.01770 0.19340 0.56482 -0.28700
C 	C 	0.96820 0.13290 0.53524 0.23200
C 	C 	0.93420 0.07600 0.55921 -0.29200
C 	C 	0.82060 0.98730 0.62539 0.09700
C 	C 	0.87310 0.95430 0.69860 -0.01500
C 	C 	0.93570 0.00600 0.68805 0.00200
C 	C 	0.13790 0.30780 0.63180 0.10900
C 	C 	0.10450 0.26870 0.70642 0.00400
C 	C 	0.16810 0.32510 0.71660 -0.00600
C 	C 	0.87620 0.10060 0.44849 0.11000
C 	C 	0.96930 0.14460 0.39411 0.00700
C 	C 	0.01400 0.15790 0.44278 -0.00800
C 	C 	0.63210 0.84470 0.48628 -0.15900
C 	C 	0.71990 0.84420 0.44780 -0.05800
C 	C 	0.68920 0.83840 0.39030 -0.06700
C 	C 	0.62080 0.90020 0.38230 -0.12300
C 	C 	0.53490 0.90700 0.42310 -0.07400
C 	C 	0.56590 0.90870 0.47990 -0.05500
C 	C 	0.66600 0.84530 0.54470 0.42000
C 	C 	0.67700 0.97430 0.38400 0.35400
C 	C 	0.73610 0.70320 0.73801 -0.15400
C 	C 	0.68200 0.70780 0.79150 -0.04100
C 	C 	0.69820 0.63880 0.81580 -0.08900
C 	C 	0.80560 0.62430 0.82340 -0.09900
C 	C 	0.85920 0.61890 0.76970 -0.09400
C 	C 	0.84360 0.68740 0.74510 -0.04100
C 	C 	0.72660 0.77410 0.71600 0.33800
C 	C 	0.85470 0.68280 0.86940 0.33400
C 	C 	0.03900 0.48070 0.83042 0.22400
C 	C 	0.01520 0.42880 0.86114 -0.29500
C 	C 	0.04270 0.43970 0.91489 0.22600
C 	C 	0.09610 0.50180 0.93889 -0.29500
C 	C 	0.12290 0.55130 0.90647 0.22500
C 	C 	0.09460 0.54250 0.85282 -0.29300
C 	C 	0.92780 0.43110 0.75512 0.09900
C 	C 	0.99890 0.46420 0.68764 -0.01000
C 	C 	0.05360 0.49160 0.73195 -0.00000
C 	C 	0.07360 0.35920 0.98251 0.11500
C 	C 	0.95290 0.28490 0.96670 -0.01400
C 	C 	0.94040 0.33500 0.93520 0.00400
C 	C 	0.24700 0.62100 0.97068 0.10200
C 	C 	0.25500 0.72230 0.94050 -0.01500
C 	C 	0.18760 0.67980 0.91020 -0.00500
C 	C 	0.55630 0.58210 0.61445 0.22700
C 	C 	0.50600 0.64220 0.64559 -0.28000
C 	C 	0.46920 0.69670 0.62033 0.22500
C 	C 	0.48230 0.69340 0.56482 -0.28600
C 	C 	0.53180 0.63290 0.53524 0.23200
C 	C 	0.56580 0.57600 0.55921 -0.29200
C 	C 	0.67940 0.48730 0.62539 0.09800
C 	C 	0.62690 0.45430 0.69860 -0.01400
C 	C 	0.56430 0.50600 0.68805 0.00100
C 	C 	0.36210 0.80780 0.63180 0.10800
C 	C 	0.39550 0.76870 0.70642 0.00400
C 	C 	0.33190 0.82510 0.71660 -0.00600
C 	C 	0.62380 0.60060 0.44849 0.11000
C 	C 	0.53070 0.64460 0.39411 0.00700
C 	C 	0.48600 0.65790 0.44278 -0.00800
C 	C 	0.86790 0.34470 0.48628 -0.15800
C 	C 	0.78010 0.34420 0.44780 -0.05900
C 	C 	0.81080 0.33840 0.39030 -0.06600
C 	C 	0.87920 0.40020 0.38230 -0.12400
C 	C 	0.96510 0.40700 0.42310 -0.07200
C 	C 	0.93410 0.40870 0.47990 -0.05700
C 	C 	0.83400 0.34530 0.54470 0.42000
C 	C 	0.82300 0.47430 0.38400 0.35400
C 	C 	0.76390 0.20320 0.73801 -0.15400
C 	C 	0.81800 0.20780 0.79150 -0.04100
C 	C 	0.80180 0.13880 0.81580 -0.08900
C 	C 	0.69440 0.12430 0.82340 -0.09900
C 	C 	0.64080 0.11890 0.76970 -0.09400
C 	C 	0.65640 0.18740 0.74510 -0.04100
C 	C 	0.77340 0.27410 0.71600 0.33800
C 	C 	0.64530 0.18280 0.86940 0.33400
C 	C 	0.53900 0.01930 0.16958 0.22300
C 	C 	0.51520 0.07120 0.13886 -0.29700
C 	C 	0.54270 0.06030 0.08511 0.22500
C 	C 	0.59610 0.99820 0.06111 -0.29300
C 	C 	0.62290 0.94870 0.09353 0.22400
C 	C 	0.59460 0.95750 0.14718 -0.29100
C 	C 	0.42780 0.06890 0.24488 0.10000
C 	C 	0.49890 0.03580 0.31236 -0.00600
C 	C 	0.55360 0.00840 0.26805 -0.00500
C 	C 	0.57360 0.14080 0.01749 0.11400
C 	C 	0.45290 0.21510 0.03330 -0.01200
C 	C 	0.44040 0.16500 0.06480 0.00500
C 	C 	0.74700 0.87900 0.02932 0.10200
C 	C 	0.75500 0.77770 0.05950 -0.01500
C 	C 	0.68760 0.82020 0.08980 -0.00500
C 	C 	0.05630 0.91790 0.38555 0.22800
C 	C 	0.00600 0.85780 0.35441 -0.28300
C 	C 	0.96920 0.80330 0.37967 0.22700
C 	C 	0.98230 0.80660 0.43518 -0.28700
C 	C 	0.03180 0.86710 0.46476 0.23200
C 	C 	0.06580 0.92400 0.44079 -0.29200
C 	C 	0.17940 0.01270 0.37461 0.09700
C 	C 	0.12690 0.04570 0.30140 -0.01500
C 	C 	0.06430 0.99400 0.31195 0.00200
C 	C 	0.86210 0.69220 0.36820 0.10900
C 	C 	0.89550 0.73130 0.29358 0.00400
C 	C 	0.83190 0.67490 0.28340 -0.00600
C 	C 	0.12380 0.89940 0.55151 0.11000
C 	C 	0.03070 0.85540 0.60589 0.00700
C 	C 	0.98600 0.84210 0.55722 -0.00800
C 	C 	0.36790 0.15530 0.51372 -0.15900
C 	C 	0.28010 0.15580 0.55220 -0.05800
C 	C 	0.31080 0.16160 0.60970 -0.06700
C 	C 	0.37920 0.09980 0.61770 -0.12300
C 	C 	0.46510 0.09300 0.57690 -0.07400
C 	C 	0.43410 0.09130 0.52010 -0.05500
C 	C 	0.33400 0.15470 0.45530 0.42000
C 	C 	0.32300 0.02570 0.61600 0.35400
C 	C 	0.26390 0.29680 0.26199 -0.15400
C 	C 	0.31800 0.29220 0.20850 -0.04100
C 	C 	0.30180 0.36120 0.18420 -0.08900
C 	C 	0.19440 0.37570 0.17660 -0.09900
C 	C 	0.14080 0.38110 0.23030 -0.09400
C 	C 	0.15640 0.31260 0.25490 -0.04100
C 	C 	0.27340 0.22590 0.28400 0.33800
C 	C 	0.14530 0.31720 0.13060 0.33400
N 	N 	0.08020 0.57350 0.29770 -0.25500
N 	N 	0.99240 0.53030 0.22495 -0.16400
N 	N 	0.96300 0.70020 0.00312 -0.27400
N 	N 	0.98180 0.61630 0.05492 -0.16700
N 	N 	0.70680 0.31580 0.02113 -0.28000
N 	N 	0.81770 0.38530 0.07113 -0.16400
N 	N 	0.30120 0.55800 0.34062 -0.25900
N 	N 	0.40330 0.47220 0.35885 -0.16400
N 	N 	0.69030 0.15050 0.33025 -0.28900
N 	N 	0.58480 0.24290 0.34855 -0.16600
N 	N 	0.38310 0.39150 0.60189 -0.29000
N 	N 	0.45460 0.37050 0.52194 -0.16000
N 	N 	0.58020 0.92650 0.70230 -0.25500
N 	N 	0.49240 0.96970 0.77505 -0.16500
N 	N 	0.46300 0.79980 0.99688 -0.27600
N 	N 	0.48180 0.88370 0.94508 -0.16800
N 	N 	0.20680 0.18420 0.97887 -0.27900
N 	N 	0.31770 0.11470 0.92887 -0.16400
N 	N 	0.80120 0.94200 0.65938 -0.25900
N 	N 	0.90330 0.02780 0.64115 -0.16400
N 	N 	0.19030 0.34950 0.66975 -0.28900
N 	N 	0.08480 0.25710 0.65145 -0.16600
N 	N 	0.88310 0.10850 0.39811 -0.29000
N 	N 	0.95460 0.12950 0.47806 -0.16000
N 	N 	0.91980 0.42650 0.70230 -0.25500
N 	N 	0.00760 0.46970 0.77505 -0.16400
N 	N 	0.03700 0.29980 0.99688 -0.27400
N 	N 	0.01820 0.38370 0.94508 -0.16700
N 	N 	0.29320 0.68420 0.97887 -0.28000
N 	N 	0.18230 0.61470 0.92887 -0.16400
N 	N 	0.69880 0.44200 0.65938 -0.25900
N 	N 	0.59670 0.52780 0.64115 -0.16400
N 	N 	0.30970 0.84950 0.66975 -0.28900
N 	N 	0.41520 0.75710 0.65145 -0.16600
N 	N 	0.61690 0.60850 0.39811 -0.29000
N 	N 	0.54540 0.62950 0.47806 -0.16000
N 	N 	0.41980 0.07350 0.29770 -0.25500
N 	N 	0.50760 0.03030 0.22495 -0.16500
N 	N 	0.53700 0.20020 0.00312 -0.27600
N 	N 	0.51820 0.11630 0.05492 -0.16800
N 	N 	0.79320 0.81580 0.02113 -0.27900
N 	N 	0.68230 0.88530 0.07113 -0.16400
N 	N 	0.19880 0.05800 0.34062 -0.25900
N 	N 	0.09670 0.97220 0.35885 -0.16400
N 	N 	0.80970 0.65050 0.33025 -0.28900
N 	N 	0.91520 0.74290 0.34855 -0.16600
N 	N 	0.11690 0.89150 0.60189 -0.29000
N 	N 	0.04540 0.87050 0.52194 -0.16000
O 	O 	0.12240 0.62490 0.41809 -0.50800
O 	O 	0.24600 0.68590 0.44823 -0.35000
O 	O 	0.23470 0.52730 0.65460 -0.50200
O 	O 	0.16320 0.46990 0.58010 -0.33300
O 	O 	0.19550 0.72912 0.33191 -0.45200
O 	O 	0.24960 0.66510 0.25491 -0.34800
O 	O 	0.44260 0.79850 0.13575 -0.37100
O 	O 	0.30630 0.79390 0.08995 -0.48600
O 	O 	0.62240 0.87510 0.58191 -0.50800
O 	O 	0.74600 0.81410 0.55177 -0.35000
O 	O 	0.73470 0.97270 0.34540 -0.50100
O 	O 	0.66320 0.03010 0.41990 -0.33300
O 	O 	0.69550 0.77088 0.66809 -0.45100
O 	O 	0.74960 0.83490 0.74509 -0.34800
O 	O 	0.94260 0.70150 0.86425 -0.37200
O 	O 	0.80630 0.70610 0.91005 -0.48700
O 	O 	0.87760 0.37510 0.58191 -0.50800
O 	O 	0.75400 0.31410 0.55177 -0.35000
O 	O 	0.76530 0.47270 0.34540 -0.50200
O 	O 	0.83680 0.53010 0.41990 -0.33300
O 	O 	0.80450 0.27088 0.66809 -0.45200
O 	O 	0.75040 0.33490 0.74509 -0.34800
O 	O 	0.55740 0.20150 0.86425 -0.37100
O 	O 	0.69370 0.20610 0.91005 -0.48600
O 	O 	0.37760 0.12490 0.41809 -0.50800
O 	O 	0.25400 0.18590 0.44823 -0.35000
O 	O 	0.26530 0.02730 0.65460 -0.50100
O 	O 	0.33680 0.96990 0.58010 -0.33300
O 	O 	0.30450 0.22912 0.33191 -0.45100
O 	O 	0.25040 0.16510 0.25491 -0.34800
O 	O 	0.05740 0.29850 0.13575 -0.37200
O 	O 	0.19370 0.29390 0.08995 -0.48700
