data_crystal

_cell_length_a 7.27760
_cell_length_b 7.27760
_cell_length_c 26.93100
_cell_angle_alpha 90.00000
_cell_angle_beta  90.00000
_cell_angle_gamma 90.48990

_symmetry_space_group_name_	'P 1'
_symmetry_space_group_name_H-M	'P 1'

loop_
_symmetry_equiv_pos_as_xyz
  x,y,z

loop_
_atom_site_label
_atom_site_type_symbol
_atom_site_fract_x
_atom_site_fract_y
_atom_site_fract_z
_atom_site_charge
Zn	Zn	0.03971 0.68785 0.72095 1.19600
Zn	Zn	0.68785 0.03971 0.27905 1.19600
Zn	Zn	0.18785 0.53971 0.22095 1.19900
Zn	Zn	0.53971 0.18785 0.77905 1.19900
H 	H 	0.32260 0.68620 0.85950 0.23800
H 	H 	0.11570 0.68550 0.83920 0.18800
H 	H 	0.66530 0.68570 0.63720 0.12800
H 	H 	0.45420 0.66200 0.70020 -0.01500
H 	H 	0.04490 0.73150 0.60770 -0.05200
H 	H 	0.24390 0.75590 0.54150 0.09300
H 	H 	0.59620 0.86740 0.52320 0.14500
H 	H 	0.74070 0.74490 0.55290 0.14900
H 	H 	0.47440 0.60460 0.48390 -0.03100
H 	H 	0.68620 0.32260 0.14050 0.23900
H 	H 	0.68550 0.11570 0.16080 0.18800
H 	H 	0.68570 0.66530 0.36280 0.12800
H 	H 	0.66200 0.45420 0.29980 -0.01500
H 	H 	0.73150 0.04490 0.39230 -0.05200
H 	H 	0.75590 0.24390 0.45850 0.09300
H 	H 	0.86740 0.59620 0.47680 0.14500
H 	H 	0.74490 0.74070 0.44710 0.14900
H 	H 	0.60460 0.47440 0.51610 -0.03100
H 	H 	0.18620 0.82260 0.35950 0.18300
H 	H 	0.18550 0.61570 0.33920 0.13600
H 	H 	0.18570 0.16530 0.13720 0.20200
H 	H 	0.16200 0.95420 0.20020 -0.08500
H 	H 	0.23150 0.54490 0.10770 -0.05700
H 	H 	0.25590 0.74390 0.04150 0.15400
H 	H 	0.36740 0.09620 0.02320 0.13100
H 	H 	0.24490 0.24070 0.05290 0.14400
H 	H 	0.10460 0.97440 0.98390 0.06600
H 	H 	0.82260 0.18620 0.64050 0.18300
H 	H 	0.61570 0.18550 0.66080 0.13600
H 	H 	0.16530 0.18570 0.86280 0.20200
H 	H 	0.95420 0.16200 0.79980 -0.08500
H 	H 	0.54490 0.23150 0.89230 -0.05800
H 	H 	0.74390 0.25590 0.95850 0.15300
H 	H 	0.09620 0.36740 0.97680 0.13100
H 	H 	0.24070 0.24490 0.94710 0.14300
H 	H 	0.97440 0.10460 0.01610 0.06700
C 	C 	0.28640 0.86080 0.79987 0.51200
C 	C 	0.24650 0.68670 0.82901 -0.64900
C 	C 	0.28610 0.51430 0.79880 0.52100
C 	C 	0.53800 0.69640 0.63007 -0.24000
C 	C 	0.41060 0.68260 0.66748 0.13200
C 	C 	0.17310 0.72270 0.61376 0.12400
C 	C 	0.29110 0.73770 0.57406 -0.24000
C 	C 	0.47880 0.72620 0.58165 0.22300
C 	C 	0.61450 0.74650 0.53925 -0.35600
C 	C 	0.86080 0.28640 0.20013 0.51200
C 	C 	0.68670 0.24650 0.17099 -0.64900
C 	C 	0.51430 0.28610 0.20120 0.52100
C 	C 	0.69640 0.53800 0.36993 -0.24000
C 	C 	0.68260 0.41060 0.33252 0.13200
C 	C 	0.72270 0.17310 0.38624 0.12400
C 	C 	0.73770 0.29110 0.42594 -0.24000
C 	C 	0.72620 0.47880 0.41835 0.22300
C 	C 	0.74650 0.61450 0.46075 -0.35600
C 	C 	0.36080 0.78640 0.29987 0.46400
C 	C 	0.18670 0.74650 0.32901 -0.50900
C 	C 	0.01430 0.78610 0.29880 0.24800
C 	C 	0.19640 0.03800 0.13007 -0.58900
C 	C 	0.18260 0.91060 0.16748 0.34900
C 	C 	0.22270 0.67310 0.11376 0.21100
C 	C 	0.23770 0.79110 0.07406 -0.38000
C 	C 	0.22620 0.97880 0.08165 0.47000
C 	C 	0.24650 0.11450 0.03925 -0.45000
C 	C 	0.78640 0.36080 0.70013 0.46400
C 	C 	0.74650 0.18670 0.67099 -0.50900
C 	C 	0.78610 0.01430 0.70120 0.24800
C 	C 	0.03800 0.19640 0.86993 -0.58900
C 	C 	0.91060 0.18260 0.83252 0.34900
C 	C 	0.67310 0.22270 0.88624 0.21100
C 	C 	0.79110 0.23770 0.92594 -0.38000
C 	C 	0.97880 0.22620 0.91835 0.47000
C 	C 	0.11450 0.24650 0.96075 -0.45100
C 	C 	0.59620 0.59620 0.50000 0.15700
C 	C 	0.09620 0.09620 -0.00000 -0.03900
N 	N 	0.22970 0.69630 0.66089 -0.26200
N 	N 	0.69630 0.22970 0.33911 -0.26200
N 	N 	0.19630 0.72970 0.16089 -0.31300
N 	N 	0.72970 0.19630 0.83911 -0.31300
O 	O 	0.19870 0.88450 0.75907 -0.48300
O 	O 	0.40300 0.97140 0.81665 -0.43100
O 	O 	0.19897 0.49103 0.75833 -0.51900
O 	O 	0.40335 0.40575 0.81531 -0.48500
O 	O 	0.88450 0.19870 0.24093 -0.48300
O 	O 	0.97140 0.40300 0.18335 -0.43100
O 	O 	0.49103 0.19897 0.24167 -0.51900
O 	O 	0.40575 0.40335 0.18469 -0.48500
O 	O 	0.38450 0.69870 0.25907 -0.47000
O 	O 	0.47140 0.90300 0.31665 -0.42300
O 	O 	0.99103 0.69897 0.25833 -0.33000
O 	O 	0.90575 0.90335 0.31531 -0.29500
O 	O 	0.69870 0.38450 0.74093 -0.47000
O 	O 	0.90300 0.47140 0.68335 -0.42300
O 	O 	0.69897 0.99103 0.74167 -0.33000
O 	O 	0.90335 0.90575 0.68469 -0.29500
