data_crystal

_cell_length_a 7.31900
_cell_length_b 14.61000
_cell_length_c 20.56400
_cell_angle_alpha 90.00000
_cell_angle_beta  90.00000
_cell_angle_gamma 90.00000

_symmetry_space_group_name_	'P 1'
_symmetry_space_group_name_H-M	'P 1'

loop_
_symmetry_equiv_pos_as_xyz
  x,y,z

loop_
_atom_site_label
_atom_site_type_symbol
_atom_site_fract_x
_atom_site_fract_y
_atom_site_fract_z
_atom_site_charge
Zn	Zn	0.24990 0.12516 0.12156 1.21500
Zn	Zn	0.76260 0.37438 0.04537 1.18400
Zn	Zn	0.75010 0.87484 0.62156 1.22500
Zn	Zn	0.23740 0.62562 0.54537 1.22600
Zn	Zn	0.25010 0.62516 0.12156 1.21500
Zn	Zn	0.73740 0.87438 0.04537 1.18500
Zn	Zn	0.74990 0.37484 0.62156 1.22300
Zn	Zn	0.26260 0.12562 0.54537 1.22500
H 	H 	0.25900 0.27240 0.94320 0.13800
H 	H 	0.26180 0.16930 0.96440 0.12500
H 	H 	0.74830 0.52380 0.22250 0.27300
H 	H 	0.75410 0.42090 0.20080 0.24100
H 	H 	0.11430 0.13500 0.26370 0.00300
H 	H 	0.09320 0.23230 0.35090 0.08800
H 	H 	0.28880 0.43030 0.23530 0.09200
H 	H 	0.30970 0.32530 0.15410 -0.01000
H 	H 	0.11910 0.52290 0.31210 0.08300
H 	H 	0.13820 0.61980 0.39860 0.01100
H 	H 	0.28160 0.41810 0.51390 0.00600
H 	H 	0.26450 0.31670 0.42920 0.08400
H 	H 	0.74100 0.72760 0.44320 0.25100
H 	H 	0.73820 0.83070 0.46440 0.22200
H 	H 	0.25170 0.47620 0.72250 0.29300
H 	H 	0.24590 0.57910 0.70080 0.25800
H 	H 	0.88570 0.86500 0.76370 0.00600
H 	H 	0.90680 0.76770 0.85090 0.07500
H 	H 	0.71120 0.56970 0.73530 0.08200
H 	H 	0.69030 0.67470 0.65410 -0.00100
H 	H 	0.88090 0.47710 0.81210 0.10000
H 	H 	0.86180 0.38020 0.89860 -0.00600
H 	H 	0.71840 0.58190 0.01390 -0.17700
H 	H 	0.73550 0.68330 0.92920 0.15800
H 	H 	0.24100 0.77240 0.94320 0.13900
H 	H 	0.23820 0.66930 0.96440 0.12600
H 	H 	0.75170 0.02380 0.22250 0.26400
H 	H 	0.74590 0.92090 0.20080 0.23600
H 	H 	0.38570 0.63500 0.26370 0.00000
H 	H 	0.40680 0.73230 0.35090 0.08200
H 	H 	0.21120 0.93030 0.23530 0.09400
H 	H 	0.19030 0.82530 0.15410 -0.00700
H 	H 	0.38090 0.02290 0.31210 0.08100
H 	H 	0.36180 0.11980 0.39860 0.00700
H 	H 	0.21840 0.91810 0.51390 0.00600
H 	H 	0.23550 0.81670 0.42920 0.08700
H 	H 	0.75900 0.22760 0.44320 0.25000
H 	H 	0.76180 0.33070 0.46440 0.21900
H 	H 	0.24830 0.97620 0.72250 0.29800
H 	H 	0.25410 0.07910 0.70080 0.26100
H 	H 	0.61430 0.36500 0.76370 0.00700
H 	H 	0.59320 0.26770 0.85090 0.08000
H 	H 	0.78880 0.06970 0.73530 0.08000
H 	H 	0.80970 0.17470 0.65410 -0.00400
H 	H 	0.61910 0.97710 0.81210 0.10000
H 	H 	0.63820 0.88020 0.89860 -0.00200
H 	H 	0.78160 0.08190 0.01390 -0.17500
H 	H 	0.76450 0.18330 0.92920 0.15400
C 	C 	0.43370 0.24950 0.02100 0.19400
C 	C 	0.25940 0.23170 0.98050 -0.23800
C 	C 	0.08270 0.24660 0.01990 0.23200
C 	C 	0.58440 0.49780 0.14500 0.56100
C 	C 	0.75220 0.48350 0.18500 -0.77900
C 	C 	0.92290 0.50150 0.14760 0.53600
C 	C 	0.15310 0.19520 0.25860 0.09300
C 	C 	0.13870 0.25330 0.31140 -0.15300
C 	C 	0.19350 0.34390 0.30430 0.06600
C 	C 	0.25520 0.36990 0.24310 -0.15600
C 	C 	0.26630 0.30660 0.19450 0.08800
C 	C 	0.19400 0.40790 0.36020 0.05000
C 	C 	0.15390 0.50040 0.35250 -0.13500
C 	C 	0.16580 0.55830 0.40490 0.07300
C 	C 	0.25010 0.43980 0.47290 0.06700
C 	C 	0.24010 0.37830 0.42190 -0.13400
C 	C 	0.56630 0.75050 0.52100 0.54000
C 	C 	0.74060 0.76830 0.48050 -0.70000
C 	C 	0.91730 0.75340 0.51990 0.53300
C 	C 	0.41560 0.50220 0.64500 0.56600
C 	C 	0.24780 0.51650 0.68500 -0.80400
C 	C 	0.07710 0.49850 0.64760 0.58600
C 	C 	0.84690 0.80480 0.75860 0.07700
C 	C 	0.86130 0.74670 0.81140 -0.12700
C 	C 	0.80650 0.65610 0.80430 0.02400
C 	C 	0.74480 0.63010 0.74310 -0.12900
C 	C 	0.73370 0.69340 0.69450 0.07300
C 	C 	0.80600 0.59210 0.86020 0.13500
C 	C 	0.84610 0.49960 0.85250 -0.19600
C 	C 	0.83420 0.44170 0.90490 0.11300
C 	C 	0.74990 0.56020 0.97290 0.36300
C 	C 	0.75990 0.62170 0.92190 -0.29500
C 	C 	0.06630 0.74950 0.02100 0.21800
C 	C 	0.24060 0.73170 0.98050 -0.23800
C 	C 	0.41730 0.74660 0.01990 0.20800
C 	C 	0.91560 0.99780 0.14500 0.53600
C 	C 	0.74780 0.98350 0.18500 -0.75800
C 	C 	0.57710 0.00150 0.14760 0.54700
C 	C 	0.34690 0.69520 0.25860 0.09000
C 	C 	0.36130 0.75330 0.31140 -0.15200
C 	C 	0.30650 0.84390 0.30430 0.06200
C 	C 	0.24480 0.86990 0.24310 -0.15300
C 	C 	0.23370 0.80660 0.19450 0.08700
C 	C 	0.30600 0.90790 0.36020 0.05600
C 	C 	0.34610 0.00040 0.35250 -0.14400
C 	C 	0.33420 0.05830 0.40490 0.07500
C 	C 	0.24990 0.93980 0.47290 0.07300
C 	C 	0.25990 0.87830 0.42190 -0.13900
C 	C 	0.93370 0.25050 0.52100 0.51400
C 	C 	0.75940 0.26830 0.48050 -0.69700
C 	C 	0.58270 0.25340 0.51990 0.55600
C 	C 	0.08440 0.00220 0.64500 0.58500
C 	C 	0.25220 0.01650 0.68500 -0.81700
C 	C 	0.42290 0.99850 0.64760 0.57600
C 	C 	0.65310 0.30480 0.75860 0.08000
C 	C 	0.63870 0.24670 0.81140 -0.12900
C 	C 	0.69350 0.15610 0.80430 0.02900
C 	C 	0.75520 0.13010 0.74310 -0.13400
C 	C 	0.76630 0.19340 0.69450 0.07500
C 	C 	0.69400 0.09210 0.86020 0.12400
C 	C 	0.65390 0.99960 0.85250 -0.18400
C 	C 	0.66580 0.94170 0.90490 0.10900
C 	C 	0.75010 0.06020 0.97290 0.35100
C 	C 	0.74010 0.12170 0.92190 -0.28700
N 	N 	0.21830 0.21990 0.20200 -0.23400
N 	N 	0.21570 0.53080 0.46560 -0.21900
N 	N 	0.78170 0.78010 0.70200 -0.22500
N 	N 	0.78430 0.46920 0.96560 -0.25000
N 	N 	0.28170 0.71990 0.20200 -0.23300
N 	N 	0.28430 0.03080 0.46560 -0.22200
N 	N 	0.71830 0.28010 0.70200 -0.22600
N 	N 	0.71570 0.96920 0.96560 -0.24500
O 	O 	0.44870 0.20820 0.07460 -0.42900
O 	O 	0.54650 0.30460 0.99880 -0.29300
O 	O 	0.05740 0.20110 0.07030 -0.44100
O 	O 	0.97530 0.30530 0.99890 -0.32200
O 	O 	0.56500 0.45580 0.09120 -0.52800
O 	O 	0.46160 0.55000 0.16790 -0.48500
O 	O 	0.95510 0.45590 0.09670 -0.53600
O 	O 	0.03350 0.56100 0.17060 -0.46400
O 	O 	0.55130 0.79180 0.57460 -0.49300
O 	O 	0.45350 0.69540 0.49880 -0.48300
O 	O 	0.94260 0.79890 0.57030 -0.51500
O 	O 	0.02470 0.69470 0.49890 -0.47100
O 	O 	0.43500 0.54420 0.59120 -0.50000
O 	O 	0.53840 0.45000 0.66790 -0.47900
O 	O 	0.04490 0.54410 0.59670 -0.50000
O 	O 	0.96650 0.43900 0.67060 -0.49700
O 	O 	0.05130 0.70820 0.07460 -0.42500
O 	O 	0.95350 0.80460 0.99880 -0.31300
O 	O 	0.44260 0.70110 0.07030 -0.44400
O 	O 	0.52470 0.80530 0.99890 -0.30100
O 	O 	0.93500 0.95580 0.09120 -0.52900
O 	O 	0.03840 0.05000 0.16790 -0.46600
O 	O 	0.54490 0.95590 0.09670 -0.52600
O 	O 	0.46650 0.06100 0.17060 -0.48400
O 	O 	0.94870 0.29180 0.57460 -0.49500
O 	O 	0.04650 0.19540 0.49880 -0.46100
O 	O 	0.55740 0.29890 0.57030 -0.51300
O 	O 	0.47530 0.19470 0.49890 -0.49200
O 	O 	0.06500 0.04420 0.59120 -0.49800
O 	O 	0.96160 0.95000 0.66790 -0.49300
O 	O 	0.45510 0.04410 0.59670 -0.50900
O 	O 	0.53350 0.93900 0.67060 -0.48000
