data_crystal

_cell_length_a 7.24900
_cell_length_b 7.41900
_cell_length_c 23.93000
_cell_angle_alpha 90.00000
_cell_angle_beta  90.00000
_cell_angle_gamma 90.37000

_symmetry_space_group_name_	'P 1'
_symmetry_space_group_name_H-M	'P 1'

loop_
_symmetry_equiv_pos_as_xyz
  x,y,z

loop_
_atom_site_label
_atom_site_type_symbol
_atom_site_fract_x
_atom_site_fract_y
_atom_site_fract_z
_atom_site_charge
Zn	Zn	0.42856 0.42295 0.78196 1.22100
Zn	Zn	0.07144 0.07705 0.28196 1.21600
Zn	Zn	0.57144 0.57705 0.21804 1.22100
Zn	Zn	0.92856 0.92295 0.71804 1.21600
H 	H 	0.42710 0.50290 0.64900 0.19900
H 	H 	0.42980 0.70670 0.62680 0.23200
H 	H 	0.38010 0.60890 0.98490 0.08400
H 	H 	0.39230 0.41950 0.90860 -0.00500
H 	H 	0.45170 0.83090 0.80650 -0.00900
H 	H 	0.44160 0.03290 0.87990 0.10100
H 	H 	0.33530 0.08120 0.97970 0.07000
H 	H 	0.33900 0.91380 0.02180 0.07000
H 	H 	0.07290 0.99710 0.14900 0.20300
H 	H 	0.07020 0.79330 0.12680 0.23300
H 	H 	0.11990 0.89110 0.48490 0.08900
H 	H 	0.10770 0.08050 0.40860 -0.01600
H 	H 	0.04830 0.66910 0.30650 -0.00700
H 	H 	0.05840 0.46710 0.37990 0.09500
H 	H 	0.16470 0.41880 0.47970 0.07000
H 	H 	0.16100 0.58620 0.52180 0.07000
H 	H 	0.57290 0.49710 0.35100 0.20000
H 	H 	0.57020 0.29330 0.37320 0.23300
H 	H 	0.61990 0.39110 0.01510 0.08500
H 	H 	0.60770 0.58050 0.09140 -0.00400
H 	H 	0.54830 0.16910 0.19350 -0.00800
H 	H 	0.55840 0.96710 0.12010 0.10200
H 	H 	0.66470 0.91880 0.02030 0.07000
H 	H 	0.66100 0.08620 0.97820 0.07000
H 	H 	0.92710 0.00290 0.85100 0.20300
H 	H 	0.92980 0.20670 0.87320 0.23300
H 	H 	0.88010 0.10890 0.51510 0.08900
H 	H 	0.89230 0.91950 0.59140 -0.01600
H 	H 	0.95170 0.33090 0.69350 -0.00700
H 	H 	0.94160 0.53290 0.62010 0.09500
H 	H 	0.83530 0.58120 0.52030 0.07000
H 	H 	0.83900 0.41380 0.47820 0.07000
C 	C 	0.60150 0.66860 0.69511 0.52200
C 	C 	0.42840 0.63080 0.66081 -0.65000
C 	C 	0.25480 0.67020 0.69464 0.51300
C 	C 	0.39540 0.65830 0.94850 -0.18000
C 	C 	0.40280 0.54580 0.90271 0.09800
C 	C 	0.43740 0.78540 0.84333 0.09700
C 	C 	0.43140 0.90720 0.88700 -0.19100
C 	C 	0.41020 0.84440 0.94153 0.12900
C 	C 	0.40510 0.97230 0.99042 -0.15600
C 	C 	0.89850 0.83140 0.19511 0.52400
C 	C 	0.07160 0.86920 0.16081 -0.65300
C 	C 	0.24520 0.82980 0.19464 0.51400
C 	C 	0.10460 0.84170 0.44850 -0.18700
C 	C 	0.09720 0.95420 0.40271 0.11600
C 	C 	0.06260 0.71460 0.34333 0.09400
C 	C 	0.06860 0.59280 0.38700 -0.18300
C 	C 	0.08980 0.65560 0.44153 0.13000
C 	C 	0.09490 0.52770 0.49042 -0.15600
C 	C 	0.39850 0.33140 0.30489 0.52200
C 	C 	0.57160 0.36920 0.33919 -0.65000
C 	C 	0.74520 0.32980 0.30536 0.51300
C 	C 	0.60460 0.34170 0.05150 -0.18000
C 	C 	0.59720 0.45420 0.09729 0.09800
C 	C 	0.56260 0.21460 0.15667 0.09700
C 	C 	0.56860 0.09280 0.11300 -0.19100
C 	C 	0.58980 0.15560 0.05847 0.12900
C 	C 	0.59490 0.02770 0.00958 -0.15600
C 	C 	0.10150 0.16860 0.80489 0.52400
C 	C 	0.92840 0.13080 0.83919 -0.65300
C 	C 	0.75480 0.17020 0.80536 0.51400
C 	C 	0.89540 0.15830 0.55150 -0.18700
C 	C 	0.90280 0.04580 0.59729 0.11600
C 	C 	0.93740 0.28540 0.65667 0.09400
C 	C 	0.93140 0.40720 0.61300 -0.18300
C 	C 	0.91020 0.34440 0.55847 0.13000
C 	C 	0.90510 0.47230 0.50958 -0.15600
N 	N 	0.42400 0.60620 0.85030 -0.23600
N 	N 	0.07600 0.89380 0.35030 -0.23700
N 	N 	0.57600 0.39380 0.14970 -0.23600
N 	N 	0.92400 0.10620 0.64970 -0.23700
O 	O 	0.62550 0.58200 0.73980 -0.49600
O 	O 	0.71230 0.78580 0.67674 -0.47400
O 	O 	0.23040 0.58290 0.73975 -0.48300
O 	O 	0.14590 0.78600 0.67593 -0.46400
O 	O 	0.87450 0.91800 0.23980 -0.49200
O 	O 	0.78770 0.71420 0.17674 -0.47000
O 	O 	0.26960 0.91710 0.23975 -0.48100
O 	O 	0.35410 0.71400 0.17593 -0.46700
O 	O 	0.37450 0.41800 0.26020 -0.49600
O 	O 	0.28770 0.21420 0.32326 -0.47400
O 	O 	0.76960 0.41710 0.26025 -0.48300
O 	O 	0.85410 0.21400 0.32407 -0.46400
O 	O 	0.12550 0.08200 0.76020 -0.49200
O 	O 	0.21230 0.28580 0.82326 -0.47000
O 	O 	0.73040 0.08290 0.76025 -0.48100
O 	O 	0.64590 0.28600 0.82407 -0.46700
