data_crystal

_cell_length_a 6.27760
_cell_length_b 12.98790
_cell_length_c 18.14500
_cell_angle_alpha 106.38600
_cell_angle_beta  90.00000
_cell_angle_gamma 90.00000

_symmetry_space_group_name_	'P 1'
_symmetry_space_group_name_H-M	'P 1'

loop_
_symmetry_equiv_pos_as_xyz
  x,y,z

loop_
_atom_site_label
_atom_site_type_symbol
_atom_site_fract_x
_atom_site_fract_y
_atom_site_fract_z
_atom_site_charge
Zn	Zn	0.38406 0.75000 0.75000 1.20700
Zn	Zn	0.61594 0.25000 0.25000 1.20700
H 	H 	0.04150 0.93340 0.70050 0.08200
H 	H 	0.72580 0.78210 0.50790 0.08700
H 	H 	0.21350 0.06490 0.95230 0.07200
H 	H 	0.47150 0.73610 0.58280 -0.01600
H 	H 	0.34900 0.93780 0.01030 0.05500
H 	H 	0.14610 0.86580 0.98550 0.06200
H 	H 	0.11120 0.96380 0.11440 0.05500
H 	H 	0.14500 0.07180 0.09330 0.06600
H 	H 	0.03420 0.79960 0.43880 0.03800
H 	H 	0.34730 0.87490 0.39470 0.05900
H 	H 	0.77980 0.88180 0.76940 -0.01100
H 	H 	0.04150 0.56660 0.79950 0.08300
H 	H 	0.72580 0.71790 0.99210 0.08900
H 	H 	0.21350 0.43510 0.54770 0.07400
H 	H 	0.47150 0.76390 0.91720 -0.01500
H 	H 	0.34900 0.56220 0.48970 0.05500
H 	H 	0.14610 0.63420 0.51450 0.06100
H 	H 	0.11120 0.53620 0.38560 0.05800
H 	H 	0.14500 0.42820 0.40670 0.06800
H 	H 	0.03420 0.70040 0.06120 0.03800
H 	H 	0.34730 0.62510 0.10530 0.05900
H 	H 	0.77980 0.61820 0.73060 -0.01100
H 	H 	0.95850 0.06660 0.29950 0.08300
H 	H 	0.27420 0.21790 0.49210 0.08800
H 	H 	0.78650 0.93510 0.04770 0.07300
H 	H 	0.52850 0.26390 0.41720 -0.01500
H 	H 	0.65100 0.06220 0.98970 0.05600
H 	H 	0.85390 0.13420 0.01450 0.06300
H 	H 	0.88880 0.03620 0.88560 0.05600
H 	H 	0.85500 0.92820 0.90670 0.06700
H 	H 	0.96580 0.20040 0.56120 0.03800
H 	H 	0.65270 0.12510 0.60530 0.05900
H 	H 	0.22020 0.11820 0.23060 -0.01100
H 	H 	0.95850 0.43340 0.20050 0.08300
H 	H 	0.27420 0.28210 0.00790 0.08900
H 	H 	0.78650 0.56490 0.45230 0.07400
H 	H 	0.52850 0.23610 0.08280 -0.01500
H 	H 	0.65100 0.43780 0.51030 0.05500
H 	H 	0.85390 0.36580 0.48550 0.06100
H 	H 	0.88880 0.46380 0.61440 0.05800
H 	H 	0.85500 0.57180 0.59330 0.06800
H 	H 	0.96580 0.29960 0.93880 0.03800
H 	H 	0.65270 0.37490 0.89470 0.05900
H 	H 	0.22020 0.38180 0.26940 -0.01100
C 	C 	0.92740 0.89296 0.67506 -0.16300
C 	C 	0.74050 0.80355 0.56105 -0.16400
C 	C 	0.40460 0.96949 0.50219 0.01000
C 	C 	0.08480 0.89182 0.54802 -0.03600
C 	C 	0.15500 0.99190 0.93640 -0.12000
C 	C 	0.58780 0.77625 0.60655 0.09600
C 	C 	0.19690 0.93928 0.00118 -0.08000
C 	C 	0.08550 0.00022 0.07532 -0.07100
C 	C 	0.12070 0.85114 0.47114 -0.02500
C 	C 	0.91760 0.86337 0.59477 0.10400
C 	C 	0.26820 0.92974 0.86334 0.33200
C 	C 	0.30210 0.89503 0.44553 -0.06800
C 	C 	0.76860 0.86204 0.71614 0.09500
C 	C 	0.92740 0.60704 0.82494 -0.16400
C 	C 	0.74050 0.69645 0.93895 -0.16400
C 	C 	0.40460 0.53051 0.99781 0.01100
C 	C 	0.08480 0.60818 0.95198 -0.03600
C 	C 	0.15500 0.50810 0.56360 -0.12100
C 	C 	0.58780 0.72375 0.89345 0.09600
C 	C 	0.19690 0.56072 0.49882 -0.07500
C 	C 	0.08550 0.49978 0.42468 -0.07600
C 	C 	0.12070 0.64886 0.02886 -0.02500
C 	C 	0.91760 0.63663 0.90523 0.10400
C 	C 	0.26820 0.57026 0.63666 0.33300
C 	C 	0.30210 0.60497 0.05447 -0.06800
C 	C 	0.76860 0.63796 0.78386 0.09600
C 	C 	0.07260 0.10704 0.32494 -0.16300
C 	C 	0.25950 0.19645 0.43895 -0.16400
C 	C 	0.59540 0.03051 0.49781 0.01000
C 	C 	0.91520 0.10818 0.45198 -0.03600
C 	C 	0.84500 0.00810 0.06360 -0.12000
C 	C 	0.41220 0.22375 0.39345 0.09600
C 	C 	0.80310 0.06072 0.99882 -0.08000
C 	C 	0.91450 0.99978 0.92468 -0.07100
C 	C 	0.87930 0.14886 0.52886 -0.02500
C 	C 	0.08240 0.13663 0.40523 0.10400
C 	C 	0.73180 0.07026 0.13666 0.33200
C 	C 	0.69790 0.10497 0.55447 -0.06800
C 	C 	0.23140 0.13796 0.28386 0.09500
C 	C 	0.07260 0.39296 0.17506 -0.16400
C 	C 	0.25950 0.30355 0.06105 -0.16400
C 	C 	0.59540 0.46949 0.00219 0.01100
C 	C 	0.91520 0.39182 0.04802 -0.03600
C 	C 	0.84500 0.49190 0.43640 -0.12100
C 	C 	0.41220 0.27625 0.10655 0.09600
C 	C 	0.80310 0.43928 0.50118 -0.07500
C 	C 	0.91450 0.50022 0.57532 -0.07600
C 	C 	0.87930 0.35114 0.97114 -0.02500
C 	C 	0.08240 0.36337 0.09477 0.10400
C 	C 	0.73180 0.42974 0.36334 0.33300
C 	C 	0.69790 0.39503 0.94553 -0.06800
C 	C 	0.23140 0.36204 0.21614 0.09600
S 	S 	0.27646 0.98728 0.58944 -0.01400
S 	S 	0.27646 0.51272 0.91056 -0.01400
S 	S 	0.72354 0.01272 0.41056 -0.01400
S 	S 	0.72354 0.48728 0.08944 -0.01400
N 	N 	0.59800 0.80488 0.68368 -0.26800
N 	N 	0.59800 0.69512 0.81632 -0.26900
N 	N 	0.40200 0.19512 0.31632 -0.26800
N 	N 	0.40200 0.30488 0.18368 -0.26900
O 	O 	0.43130 0.96563 0.84283 -0.32900
O 	O 	0.19670 0.83645 0.82955 -0.45800
O 	O 	0.43130 0.53437 0.65717 -0.33000
O 	O 	0.19670 0.66355 0.67045 -0.45800
O 	O 	0.56870 0.03437 0.15717 -0.32900
O 	O 	0.80330 0.16355 0.17045 -0.45800
O 	O 	0.56870 0.46563 0.34283 -0.33000
O 	O 	0.80330 0.33645 0.32955 -0.45800
