data_crystal

_cell_length_a 8.93500
_cell_length_b 8.93500
_cell_length_c 10.87800
_cell_angle_alpha 90.00000
_cell_angle_beta  90.00000
_cell_angle_gamma 120.00000

_symmetry_space_group_name_	'P 1'
_symmetry_space_group_name_H-M	'P 1'

loop_
_symmetry_equiv_pos_as_xyz
  x,y,z

loop_
_atom_site_label
_atom_site_type_symbol
_atom_site_fract_x
_atom_site_fract_y
_atom_site_fract_z
_atom_site_charge
Ti	Ti	0.50000 0.00000 0.66667 3.07100
Ti	Ti	0.50000 0.50000 -0.00000 3.05700
Ti	Ti	0.00000 0.50000 0.33333 3.07100
H 	H 	0.02820 0.10970 0.94940 0.27000
H 	H 	0.97180 0.89030 0.94940 0.42800
H 	H 	0.10970 0.02820 0.05060 0.08100
H 	H 	0.89030 0.97180 0.05060 0.23200
H 	H 	0.08150 0.97180 0.28273 0.18500
H 	H 	0.91850 0.02820 0.28273 0.17400
H 	H 	0.91850 0.89030 0.38393 0.26100
H 	H 	0.08150 0.10970 0.38393 0.12000
H 	H 	0.89030 0.91850 0.61607 0.26500
H 	H 	0.10970 0.08150 0.61607 0.12200
H 	H 	0.97180 0.08150 0.71727 0.19800
H 	H 	0.02820 0.91850 0.71727 0.18600
C 	C 	0.30800 0.69200 0.50000 0.21000
C 	C 	0.21045 0.78955 0.50000 0.33100
C 	C 	0.38400 0.69200 0.83333 0.23100
C 	C 	0.57910 0.78955 0.83333 0.33500
C 	C 	0.30800 0.61600 0.16667 0.19000
C 	C 	0.21045 0.42090 0.16667 0.32700
C 	C 	0.69200 0.30800 0.50000 0.21000
C 	C 	0.78955 0.21045 0.50000 0.33200
C 	C 	0.61600 0.30800 0.83333 0.21700
C 	C 	0.42090 0.21045 0.83333 0.34500
C 	C 	0.69200 0.38400 0.16667 0.20400
C 	C 	0.78955 0.57910 0.16667 0.31700
N 	N 	-0.00000 0.00000 -0.00000 -0.67800
N 	N 	0.00000 0.00000 0.33333 -0.45400
N 	N 	0.00000 0.00000 0.66667 -0.46100
O 	O 	0.44890 0.76290 0.55700 -0.47800
O 	O 	0.07680 0.72730 0.43720 -0.66000
O 	O 	0.31400 0.55110 0.89033 -0.43600
O 	O 	0.65050 0.92320 0.77053 -0.54300
O 	O 	0.23710 0.68600 0.22367 -0.52500
O 	O 	0.27270 0.34950 0.10387 -0.71000
O 	O 	0.55110 0.23710 0.55700 -0.51600
O 	O 	0.92320 0.27270 0.43720 -0.58100
O 	O 	0.68600 0.44890 0.89033 -0.40700
O 	O 	0.34950 0.07680 0.77053 -0.65900
O 	O 	0.76290 0.31400 0.22367 -0.51400
O 	O 	0.72730 0.65050 0.10387 -0.67700
O 	O 	0.68600 0.23710 0.77633 -0.48100
O 	O 	0.34950 0.27270 0.89613 -0.56000
O 	O 	0.76290 0.44890 0.44300 -0.47500
O 	O 	0.72730 0.07680 0.56280 -0.66000
O 	O 	0.55110 0.31400 0.10967 -0.58300
O 	O 	0.92320 0.65050 0.22947 -0.57900
O 	O 	0.31400 0.76290 0.77633 -0.47000
O 	O 	0.65050 0.72730 0.89613 -0.52400
O 	O 	0.23710 0.55110 0.44300 -0.51300
O 	O 	0.27270 0.92320 0.56280 -0.58000
O 	O 	0.44890 0.68600 0.10967 -0.55500
O 	O 	0.07680 0.34950 0.22947 -0.69100
