data_crystal

_cell_length_a 8.93900
_cell_length_b 8.93900
_cell_length_c 10.89300
_cell_angle_alpha 90.00000
_cell_angle_beta  90.00000
_cell_angle_gamma 120.00000

_symmetry_space_group_name_	'P 1'
_symmetry_space_group_name_H-M	'P 1'

loop_
_symmetry_equiv_pos_as_xyz
  x,y,z

loop_
_atom_site_label
_atom_site_type_symbol
_atom_site_fract_x
_atom_site_fract_y
_atom_site_fract_z
_atom_site_charge
Ti	Ti	-0.00000 0.50000 0.16667 3.07000
Ti	Ti	0.50000 0.00000 0.83333 3.06900
Ti	Ti	0.50000 0.50000 0.50000 3.08100
H 	H 	0.89568 0.91131 0.88379 0.28800
H 	H 	0.10432 0.08869 0.88379 0.13800
H 	H 	0.98437 0.08869 0.78288 0.20800
H 	H 	0.01563 0.91131 0.78288 0.18700
H 	H 	0.01563 0.10432 0.55046 0.10700
H 	H 	0.98437 0.89568 0.55046 0.28900
H 	H 	0.10432 0.01563 0.44954 0.10600
H 	H 	0.89568 0.98437 0.44954 0.28800
H 	H 	0.08869 0.98437 0.21712 0.19700
H 	H 	0.91131 0.01563 0.21712 0.17700
H 	H 	0.91131 0.89568 0.11621 0.25300
H 	H 	0.08869 0.10432 0.11621 0.10400
C 	C 	0.30825 0.61650 0.33333 0.21000
C 	C 	0.21049 0.42098 0.33333 0.31600
C 	C 	0.30825 0.69175 -0.00000 0.14000
C 	C 	0.21049 0.78951 -0.00000 0.22200
C 	C 	0.38350 0.69175 0.66667 0.22600
C 	C 	0.57902 0.78951 0.66667 0.30700
C 	C 	0.69175 0.38350 0.33333 0.22400
C 	C 	0.78951 0.57902 0.33333 0.30400
C 	C 	0.69175 0.30825 -0.00000 0.15100
C 	C 	0.78951 0.21049 -0.00000 0.25600
C 	C 	0.61650 0.30825 0.66667 0.21200
C 	C 	0.42098 0.21049 0.66667 0.31800
N 	N 	-0.00000 0.00000 0.83333 -0.48000
N 	N 	0.00000 0.00000 0.50000 -0.48200
N 	N 	-0.00000 0.00000 0.16667 -0.47000
O 	O 	0.23704 0.68604 0.27635 -0.50700
O 	O 	0.07611 0.34860 0.27013 -0.67200
O 	O 	0.44900 0.76296 0.94302 -0.40300
O 	O 	0.27249 0.92389 0.93680 -0.48800
O 	O 	0.31396 0.55100 0.60968 -0.51200
O 	O 	0.65140 0.72751 0.60346 -0.59000
O 	O 	0.76296 0.31396 0.27635 -0.49500
O 	O 	0.92389 0.65140 0.27013 -0.54800
O 	O 	0.55100 0.23704 0.94302 -0.45900
O 	O 	0.72751 0.07611 0.93680 -0.60200
O 	O 	0.68604 0.44900 0.60968 -0.48000
O 	O 	0.34860 0.27249 0.60346 -0.62700
O 	O 	0.55100 0.31396 0.39032 -0.51800
O 	O 	0.72751 0.65140 0.39654 -0.59200
O 	O 	0.68604 0.23704 0.72365 -0.49800
O 	O 	0.34860 0.07611 0.72987 -0.67000
O 	O 	0.76296 0.44900 0.05698 -0.47700
O 	O 	0.92389 0.27249 0.06320 -0.56300
O 	O 	0.44900 0.68604 0.39032 -0.48700
O 	O 	0.27249 0.34860 0.39654 -0.63000
O 	O 	0.31396 0.76296 0.72365 -0.48500
O 	O 	0.65140 0.92389 0.72987 -0.54500
O 	O 	0.23704 0.55100 0.05698 -0.51900
O 	O 	0.07611 0.72751 0.06320 -0.64900
