data_crystal

_cell_length_a 8.94700
_cell_length_b 8.94700
_cell_length_c 10.89800
_cell_angle_alpha 90.00000
_cell_angle_beta  90.00000
_cell_angle_gamma 120.00000

_symmetry_space_group_name_	'P 1'
_symmetry_space_group_name_H-M	'P 1'

loop_
_symmetry_equiv_pos_as_xyz
  x,y,z

loop_
_atom_site_label
_atom_site_type_symbol
_atom_site_fract_x
_atom_site_fract_y
_atom_site_fract_z
_atom_site_charge
Ti	Ti	-0.00000 0.50000 0.16667 3.06800
Ti	Ti	0.50000 -0.00000 0.83333 3.06800
Ti	Ti	0.50000 0.50000 0.50000 3.08000
H 	H 	0.89529 0.91030 0.88284 0.28600
H 	H 	0.10471 0.08970 0.88284 0.13800
H 	H 	0.98499 0.08970 0.78383 0.20800
H 	H 	0.01501 0.91030 0.78383 0.18700
H 	H 	0.01501 0.10471 0.54951 0.10700
H 	H 	0.98499 0.89529 0.54951 0.28900
H 	H 	0.10471 0.01501 0.45049 0.10600
H 	H 	0.89529 0.98499 0.45049 0.28800
H 	H 	0.08970 0.98499 0.21617 0.19800
H 	H 	0.91030 0.01501 0.21617 0.17600
H 	H 	0.91030 0.89529 0.11716 0.25300
H 	H 	0.08970 0.10471 0.11716 0.10400
C 	C 	0.30847 0.61694 0.33333 0.21400
C 	C 	0.21052 0.42104 0.33333 0.31000
C 	C 	0.30847 0.69153 -0.00000 0.14400
C 	C 	0.21052 0.78948 -0.00000 0.21700
C 	C 	0.38306 0.69153 0.66667 0.23000
C 	C 	0.57896 0.78948 0.66667 0.30200
C 	C 	0.69153 0.38306 0.33333 0.22800
C 	C 	0.78948 0.57896 0.33333 0.30000
C 	C 	0.69153 0.30847 -0.00000 0.15500
C 	C 	0.78948 0.21052 -0.00000 0.25200
C 	C 	0.61694 0.30847 0.66667 0.21600
C 	C 	0.42104 0.21052 0.66667 0.31300
N 	N 	-0.00000 -0.00000 0.83333 -0.48000
N 	N 	0.00000 0.00000 0.50000 -0.48100
N 	N 	0.00000 -0.00000 0.16667 -0.47000
O 	O 	0.23710 0.68600 0.27629 -0.50800
O 	O 	0.07610 0.34850 0.26999 -0.66900
O 	O 	0.44890 0.76290 0.94296 -0.40500
O 	O 	0.27240 0.92390 0.93666 -0.48600
O 	O 	0.31400 0.55110 0.60962 -0.51300
O 	O 	0.65150 0.72760 0.60332 -0.58700
O 	O 	0.76290 0.31400 0.27629 -0.49700
O 	O 	0.92390 0.65150 0.26999 -0.54500
O 	O 	0.55110 0.23710 0.94296 -0.46100
O 	O 	0.72760 0.07610 0.93666 -0.60000
O 	O 	0.68600 0.44890 0.60962 -0.48200
O 	O 	0.34850 0.27240 0.60332 -0.62400
O 	O 	0.55110 0.31400 0.39038 -0.52000
O 	O 	0.72760 0.65150 0.39668 -0.59000
O 	O 	0.68600 0.23710 0.72371 -0.49900
O 	O 	0.34850 0.07610 0.73001 -0.66700
O 	O 	0.76290 0.44890 0.05704 -0.47900
O 	O 	0.92390 0.27240 0.06334 -0.56100
O 	O 	0.44890 0.68600 0.39038 -0.48900
O 	O 	0.27240 0.34850 0.39668 -0.62700
O 	O 	0.31400 0.76290 0.72371 -0.48600
O 	O 	0.65150 0.92390 0.73001 -0.54300
O 	O 	0.23710 0.55110 0.05704 -0.52100
O 	O 	0.07610 0.72760 0.06334 -0.64700
