data_crystal

_cell_length_a 8.93100
_cell_length_b 8.93100
_cell_length_c 10.89300
_cell_angle_alpha 90.00000
_cell_angle_beta  90.00000
_cell_angle_gamma 120.00000

_symmetry_space_group_name_	'P 1'
_symmetry_space_group_name_H-M	'P 1'

loop_
_symmetry_equiv_pos_as_xyz
  x,y,z

loop_
_atom_site_label
_atom_site_type_symbol
_atom_site_fract_x
_atom_site_fract_y
_atom_site_fract_z
_atom_site_charge
Ti	Ti	-0.00000 0.50000 0.16667 3.06900
Ti	Ti	0.50000 0.00000 0.83333 3.07000
Ti	Ti	0.50000 0.50000 0.50000 3.08100
H 	H 	0.89386 0.91389 0.88361 0.29000
H 	H 	0.10614 0.08611 0.88361 0.14000
H 	H 	0.97997 0.08611 0.78306 0.20700
H 	H 	0.02003 0.91389 0.78306 0.19200
H 	H 	0.02003 0.10614 0.55028 0.11200
H 	H 	0.97997 0.89386 0.55028 0.28800
H 	H 	0.10614 0.02003 0.44972 0.11100
H 	H 	0.89386 0.97997 0.44972 0.28700
H 	H 	0.08611 0.97997 0.21694 0.19700
H 	H 	0.91389 0.02003 0.21694 0.18100
H 	H 	0.91389 0.89386 0.11639 0.25500
H 	H 	0.08611 0.10614 0.11639 0.10600
C 	C 	0.30837 0.61674 0.33333 0.20800
C 	C 	0.21025 0.42050 0.33333 0.31300
C 	C 	0.30837 0.69163 -0.00000 0.13900
C 	C 	0.21025 0.78975 -0.00000 0.22000
C 	C 	0.38326 0.69163 0.66667 0.22400
C 	C 	0.57950 0.78975 0.66667 0.30500
C 	C 	0.69163 0.38326 0.33333 0.22200
C 	C 	0.78975 0.57950 0.33333 0.30200
C 	C 	0.69163 0.30837 -0.00000 0.15000
C 	C 	0.78975 0.21025 -0.00000 0.25500
C 	C 	0.61674 0.30837 0.66667 0.21000
C 	C 	0.42050 0.21025 0.66667 0.31600
N 	N 	-0.00000 0.00000 0.83333 -0.48300
N 	N 	-0.00000 -0.00000 0.50000 -0.48500
N 	N 	-0.00000 0.00000 0.16667 -0.47300
O 	O 	0.23713 0.68651 0.27615 -0.50600
O 	O 	0.07538 0.34811 0.27009 -0.67200
O 	O 	0.44938 0.76287 0.94282 -0.40300
O 	O 	0.27273 0.92462 0.93676 -0.48800
O 	O 	0.31349 0.55062 0.60948 -0.51100
O 	O 	0.65189 0.72727 0.60342 -0.59000
O 	O 	0.76287 0.31349 0.27615 -0.49400
O 	O 	0.92462 0.65189 0.27009 -0.54800
O 	O 	0.55062 0.23713 0.94282 -0.45900
O 	O 	0.72727 0.07538 0.93676 -0.60400
O 	O 	0.68651 0.44938 0.60948 -0.47900
O 	O 	0.34811 0.27273 0.60342 -0.62700
O 	O 	0.55062 0.31349 0.39052 -0.51700
O 	O 	0.72727 0.65189 0.39658 -0.59300
O 	O 	0.68651 0.23713 0.72385 -0.49700
O 	O 	0.34811 0.07538 0.72991 -0.67000
O 	O 	0.76287 0.44938 0.05718 -0.47600
O 	O 	0.92462 0.27273 0.06324 -0.56300
O 	O 	0.44938 0.68651 0.39052 -0.48600
O 	O 	0.27273 0.34811 0.39658 -0.62900
O 	O 	0.31349 0.76287 0.72385 -0.48400
O 	O 	0.65189 0.92462 0.72991 -0.54500
O 	O 	0.23713 0.55062 0.05718 -0.51800
O 	O 	0.07538 0.72727 0.06324 -0.65000
