data_crystal

_cell_length_a 18.30630
_cell_length_b 18.30630
_cell_length_c 18.30630
_cell_angle_alpha 60.00000
_cell_angle_beta  60.00000
_cell_angle_gamma 60.00000

_symmetry_space_group_name_	'P 1'
_symmetry_space_group_name_H-M	'P 1'

loop_
_symmetry_equiv_pos_as_xyz
  x,y,z

loop_
_atom_site_label
_atom_site_type_symbol
_atom_site_fract_x
_atom_site_fract_y
_atom_site_fract_z
_atom_site_charge
Zn	Zn	0.20664 0.38006 0.20665 1.21200
Zn	Zn	0.38005 0.20665 0.20665 1.21200
Zn	Zn	0.20664 0.20665 0.20665 1.21200
Zn	Zn	0.20664 0.20665 0.38006 1.21200
Zn	Zn	0.61995 0.79335 0.79335 1.21200
Zn	Zn	0.79336 0.61994 0.79335 1.21200
Zn	Zn	0.79336 0.79335 0.79335 1.21200
Zn	Zn	0.79336 0.79335 0.61994 1.21200
H 	H 	0.04520 0.56560 0.04520 0.04900
H 	H 	0.56560 0.04520 0.34400 0.04900
H 	H 	0.04520 0.34400 0.04520 0.04900
H 	H 	0.34400 0.04520 0.56560 0.04900
H 	H 	0.04520 0.04520 0.34400 0.04900
H 	H 	0.56560 0.34400 0.04520 0.04900
H 	H 	0.04520 0.04520 0.56560 0.04900
H 	H 	0.34400 0.56560 0.04520 0.04900
H 	H 	0.04520 0.34400 0.56560 0.04900
H 	H 	0.56560 0.04520 0.04520 0.04900
H 	H 	0.04520 0.56560 0.34400 0.04900
H 	H 	0.34400 0.04520 0.04520 0.04900
H 	H 	0.43440 0.95480 0.95480 0.04900
H 	H 	0.95480 0.43440 0.65600 0.04900
H 	H 	0.65600 0.95480 0.95480 0.04900
H 	H 	0.95480 0.65600 0.43440 0.04900
H 	H 	0.95480 0.95480 0.65600 0.04900
H 	H 	0.65600 0.43440 0.95480 0.04900
H 	H 	0.95480 0.95480 0.43440 0.04800
H 	H 	0.43440 0.65600 0.95480 0.04800
H 	H 	0.65600 0.95480 0.43440 0.04800
H 	H 	0.95480 0.43440 0.95480 0.04800
H 	H 	0.43440 0.95480 0.65600 0.04800
H 	H 	0.95480 0.65600 0.95480 0.04800
C 	C 	0.02683 0.53905 0.02683 -0.01500
C 	C 	0.53905 0.02683 0.40729 -0.01500
C 	C 	0.02683 0.40729 0.02683 -0.01500
C 	C 	0.40729 0.02683 0.53905 -0.01500
C 	C 	0.02683 0.02683 0.40729 -0.01500
C 	C 	0.53905 0.40729 0.02683 -0.01500
C 	C 	0.02683 0.02683 0.53905 -0.01500
C 	C 	0.40729 0.53905 0.02683 -0.01500
C 	C 	0.02683 0.40729 0.53905 -0.01500
C 	C 	0.53905 0.02683 0.02683 -0.01500
C 	C 	0.02683 0.53905 0.40729 -0.01500
C 	C 	0.40729 0.02683 0.02683 -0.01500
C 	C 	0.46095 0.97317 0.97317 -0.01500
C 	C 	0.97317 0.46095 0.59271 -0.01500
C 	C 	0.59271 0.97317 0.97317 -0.01500
C 	C 	0.97317 0.59271 0.46095 -0.01500
C 	C 	0.97317 0.97317 0.59271 -0.01500
C 	C 	0.59271 0.46095 0.97317 -0.01500
C 	C 	0.97317 0.97317 0.46095 -0.01500
C 	C 	0.46095 0.59271 0.97317 -0.01500
C 	C 	0.59271 0.97317 0.46095 -0.01500
C 	C 	0.97317 0.46095 0.97317 -0.01500
C 	C 	0.46095 0.97317 0.59271 -0.01500
C 	C 	0.97317 0.59271 0.97317 -0.01500
C 	C 	0.11144 0.38856 0.11144 0.38200
C 	C 	0.05381 0.44619 0.05381 -0.08700
C 	C 	0.38856 0.11144 0.38856 0.38200
C 	C 	0.44619 0.05381 0.44619 -0.08700
C 	C 	0.11144 0.11144 0.38856 0.38200
C 	C 	0.05381 0.05381 0.44619 -0.08700
C 	C 	0.38856 0.38856 0.11144 0.38200
C 	C 	0.44619 0.44619 0.05381 -0.08700
C 	C 	0.11144 0.38856 0.38856 0.38200
C 	C 	0.05381 0.44619 0.44619 -0.08700
C 	C 	0.38856 0.11144 0.11144 0.38200
C 	C 	0.44619 0.05381 0.05381 -0.08700
C 	C 	0.61144 0.88856 0.88856 0.38200
C 	C 	0.55381 0.94619 0.94619 -0.08700
C 	C 	0.88856 0.61144 0.61144 0.38200
C 	C 	0.94619 0.55381 0.55381 -0.08700
C 	C 	0.88856 0.88856 0.61144 0.38200
C 	C 	0.94619 0.94619 0.55381 -0.08700
C 	C 	0.61144 0.61144 0.88856 0.38200
C 	C 	0.55381 0.55381 0.94619 -0.08700
C 	C 	0.61144 0.88856 0.61144 0.38200
C 	C 	0.55381 0.94619 0.55381 -0.08700
C 	C 	0.88856 0.61144 0.88856 0.38200
C 	C 	0.94619 0.55381 0.94619 -0.08700
O 	O 	0.25000 0.25000 0.25000 -0.96300
O 	O 	0.75000 0.75000 0.75000 -0.96300
O 	O 	0.13368 0.42768 0.13368 -0.50500
O 	O 	0.42768 0.13368 0.30496 -0.50500
O 	O 	0.13368 0.30496 0.13368 -0.50500
O 	O 	0.30496 0.13368 0.42768 -0.50500
O 	O 	0.13368 0.13368 0.30496 -0.50500
O 	O 	0.42768 0.30496 0.13368 -0.50500
O 	O 	0.13368 0.13368 0.42768 -0.50500
O 	O 	0.30496 0.42768 0.13368 -0.50500
O 	O 	0.13368 0.30496 0.42768 -0.50500
O 	O 	0.42768 0.13368 0.13368 -0.50500
O 	O 	0.13368 0.42768 0.30496 -0.50500
O 	O 	0.30496 0.13368 0.13368 -0.50500
O 	O 	0.57232 0.86632 0.86632 -0.50500
O 	O 	0.86632 0.57232 0.69504 -0.50500
O 	O 	0.69504 0.86632 0.86632 -0.50500
O 	O 	0.86632 0.69504 0.57232 -0.50500
O 	O 	0.86632 0.86632 0.69504 -0.50500
O 	O 	0.69504 0.57232 0.86632 -0.50500
O 	O 	0.86632 0.86632 0.57232 -0.50500
O 	O 	0.57232 0.69504 0.86632 -0.50500
O 	O 	0.69504 0.86632 0.57232 -0.50500
O 	O 	0.86632 0.57232 0.86632 -0.50500
O 	O 	0.57232 0.86632 0.69504 -0.50500
O 	O 	0.86632 0.69504 0.86632 -0.50500
