data_crystal

_cell_length_a 11.14000
_cell_length_b 11.49700
_cell_length_c 16.85400
_cell_angle_alpha 90.00000
_cell_angle_beta  90.00000
_cell_angle_gamma 90.00000

_symmetry_space_group_name_	'P 1'
_symmetry_space_group_name_H-M	'P 1'

loop_
_symmetry_equiv_pos_as_xyz
  x,y,z

loop_
_atom_site_label
_atom_site_type_symbol
_atom_site_fract_x
_atom_site_fract_y
_atom_site_fract_z
_atom_site_charge
Fe	Fe	-0.00000 0.00000 -0.00000 1.00500
Fe	Fe	0.50000 0.00000 0.50000 1.11100
Fe	Fe	0.00000 0.50000 0.50000 1.10400
Fe	Fe	0.50000 0.50000 -0.00000 1.08500
C 	C 	0.17740 0.06650 0.24720 -0.23400
C 	C 	0.13020 0.14760 0.29830 0.11900
C 	C 	0.16940 0.18120 0.37410 -0.17000
C 	C 	0.12500 0.04730 0.16990 0.12400
C 	C 	0.28160 0.99930 0.26390 0.23500
C 	C 	0.01790 0.20210 0.27120 -0.07900
C 	C 	0.77090 0.13070 0.08760 0.11200
C 	C 	0.11200 0.22970 0.91620 0.15800
C 	C 	0.32260 0.93350 0.74720 -0.01700
C 	C 	0.36980 0.85240 0.79830 0.03200
C 	C 	0.33060 0.81880 0.87410 -0.10000
C 	C 	0.37500 0.95270 0.66990 0.14600
C 	C 	0.21840 0.00070 0.76390 0.00900
C 	C 	0.48210 0.79790 0.77120 0.09400
C 	C 	0.72910 0.86930 0.58760 0.15400
C 	C 	0.38800 0.77030 0.41620 0.15300
C 	C 	0.82260 0.56650 0.25280 -0.09300
C 	C 	0.86980 0.64760 0.20170 0.02100
C 	C 	0.83060 0.68120 0.12590 -0.10900
C 	C 	0.87500 0.54730 0.33010 0.16200
C 	C 	0.71840 0.49930 0.23610 0.12300
C 	C 	0.98210 0.70210 0.22880 0.19000
C 	C 	0.22910 0.63070 0.41240 0.13300
C 	C 	0.88800 0.72970 0.58380 0.15800
C 	C 	0.67740 0.43350 0.75280 -0.11000
C 	C 	0.63020 0.35240 0.70170 0.06000
C 	C 	0.66940 0.31880 0.62590 -0.12800
C 	C 	0.62500 0.45270 0.83010 0.16700
C 	C 	0.78160 0.50070 0.73610 0.14600
C 	C 	0.51790 0.29790 0.72880 0.06800
C 	C 	0.27090 0.36930 0.91240 0.15900
C 	C 	0.61200 0.27030 0.08380 0.13000
C 	C 	0.82260 0.93350 0.75280 0.00300
C 	C 	0.86980 0.85240 0.70170 -0.00000
C 	C 	0.83060 0.81880 0.62590 -0.08700
C 	C 	0.87500 0.95270 0.83010 0.17100
C 	C 	0.71840 0.00070 0.73610 0.02600
C 	C 	0.98210 0.79790 0.72880 0.20800
C 	C 	0.22910 0.86930 0.91240 0.16600
C 	C 	0.88800 0.77030 0.08380 0.13900
C 	C 	0.67740 0.06650 0.25280 -0.20900
C 	C 	0.63020 0.14760 0.20170 0.08200
C 	C 	0.66940 0.18120 0.12590 -0.15100
C 	C 	0.62500 0.04730 0.33010 0.15400
C 	C 	0.78160 0.99930 0.23610 0.24500
C 	C 	0.51790 0.20210 0.22880 0.04300
C 	C 	0.27090 0.13070 0.41240 0.12400
C 	C 	0.61200 0.22970 0.58380 0.14700
C 	C 	0.17740 0.43350 0.74720 -0.13300
C 	C 	0.13020 0.35240 0.79830 0.09400
C 	C 	0.16940 0.31880 0.87410 -0.14100
C 	C 	0.12500 0.45270 0.66990 0.13800
C 	C 	0.28160 0.50070 0.76390 0.13100
C 	C 	0.01790 0.29790 0.77120 -0.05000
C 	C 	0.77090 0.36930 0.58760 0.14600
C 	C 	0.11200 0.27030 0.41620 0.14200
C 	C 	0.32260 0.56650 0.24720 -0.11600
C 	C 	0.36980 0.64760 0.29830 0.05600
C 	C 	0.33060 0.68120 0.37410 -0.12700
C 	C 	0.37500 0.54730 0.16990 0.13300
C 	C 	0.21840 0.49930 0.26390 0.10900
C 	C 	0.48210 0.70210 0.27120 0.06900
C 	C 	0.72910 0.63070 0.08760 0.12100
C 	C 	0.38800 0.72970 0.91620 0.17000
N 	N 	0.09020 0.03250 0.10770 -0.31800
N 	N 	0.36210 0.94260 0.27440 -0.15100
N 	N 	0.93050 0.24270 0.25270 -0.03100
N 	N 	0.84860 0.08960 0.05170 -0.26000
N 	N 	0.06680 0.15800 0.95180 -0.24300
N 	N 	0.40980 0.96750 0.60770 -0.23100
N 	N 	0.13790 0.05740 0.77440 -0.14200
N 	N 	0.56950 0.75730 0.75270 -0.11000
N 	N 	0.65140 0.91040 0.55170 -0.22400
N 	N 	0.43320 0.84200 0.45180 -0.24100
N 	N 	0.90980 0.53250 0.39230 -0.23200
N 	N 	0.63790 0.44260 0.22560 -0.13500
N 	N 	0.06950 0.74270 0.24730 -0.19500
N 	N 	0.15140 0.58960 0.44830 -0.26200
N 	N 	0.93320 0.65800 0.54820 -0.22700
N 	N 	0.59020 0.46750 0.89230 -0.22300
N 	N 	0.86210 0.55740 0.72560 -0.11600
N 	N 	0.43050 0.25730 0.74730 -0.11800
N 	N 	0.34860 0.41040 0.94830 -0.21500
N 	N 	0.56680 0.34200 0.04820 -0.28500
N 	N 	0.90980 0.96750 0.89230 -0.16800
N 	N 	0.63790 0.05740 0.72560 -0.12200
N 	N 	0.06950 0.75730 0.74730 -0.19100
N 	N 	0.15140 0.91040 0.94830 -0.20000
N 	N 	0.93320 0.84200 0.04820 -0.23400
N 	N 	0.59020 0.03250 0.39230 -0.28000
N 	N 	0.86210 0.94260 0.22560 -0.12800
N 	N 	0.43050 0.24270 0.24730 -0.11900
N 	N 	0.34860 0.08960 0.44830 -0.26700
N 	N 	0.56680 0.15800 0.54820 -0.26700
N 	N 	0.09020 0.46750 0.60770 -0.27800
N 	N 	0.36210 0.55740 0.77440 -0.13700
N 	N 	0.93050 0.25730 0.75270 -0.03400
N 	N 	0.84860 0.41040 0.55170 -0.22700
N 	N 	0.06680 0.34200 0.45180 -0.28000
N 	N 	0.40980 0.53250 0.10770 -0.28100
N 	N 	0.13790 0.44260 0.27440 -0.15700
N 	N 	0.56950 0.74270 0.25270 -0.11000
N 	N 	0.65140 0.58960 0.05170 -0.26700
N 	N 	0.43320 0.65800 0.95180 -0.21500
