data_crystal

_cell_length_a 10.39330
_cell_length_b 10.86880
_cell_length_c 11.06470
_cell_angle_alpha 90.36710
_cell_angle_beta  90.00000
_cell_angle_gamma 118.56300

_symmetry_space_group_name_	'P 1'
_symmetry_space_group_name_H-M	'P 1'

loop_
_symmetry_equiv_pos_as_xyz
  x,y,z

loop_
_atom_site_label
_atom_site_type_symbol
_atom_site_fract_x
_atom_site_fract_y
_atom_site_fract_z
_atom_site_charge
Zn	Zn	0.48233 0.84568 0.00382 1.22100
Zn	Zn	0.63665 0.15432 0.49618 1.17100
Zn	Zn	0.51767 0.15432 0.99618 1.17600
Zn	Zn	0.36335 0.84568 0.50382 1.22700
Zn	Zn	0.62220 0.00000 0.75000 1.14700
Zn	Zn	0.37780 0.00000 0.25000 1.14800
H 	H 	0.59280 0.08920 0.94980 -0.06300
H 	H 	0.57810 0.49540 0.93190 0.07200
H 	H 	0.67050 0.68600 0.60840 0.04900
H 	H 	0.64830 0.48680 0.51130 0.06900
H 	H 	0.50360 0.91080 0.55020 -0.07300
H 	H 	0.08270 0.50460 0.56810 0.06100
H 	H 	0.98450 0.31400 0.89160 -0.00100
H 	H 	0.16150 0.51320 0.98870 0.08200
H 	H 	0.40720 0.91080 0.05020 -0.07500
H 	H 	0.42190 0.50460 0.06810 0.05300
H 	H 	0.32950 0.31400 0.39160 0.01700
H 	H 	0.35170 0.51320 0.48870 0.06900
H 	H 	0.49640 0.08920 0.44980 -0.06500
H 	H 	0.91730 0.49540 0.43190 0.06300
H 	H 	0.01550 0.68600 0.10840 0.06300
H 	H 	0.83850 0.48680 0.01130 0.05800
C 	C 	0.59910 0.37020 0.66630 0.07400
C 	C 	0.57840 0.37160 0.79030 0.04800
C 	C 	0.59130 0.49320 0.84900 -0.07100
C 	C 	0.62390 0.60700 0.77840 -0.06300
C 	C 	0.64660 0.60560 0.65280 0.01700
C 	C 	0.63430 0.48820 0.59420 -0.12700
C 	C 	0.63240 0.73860 0.83400 0.35400
C 	C 	0.22890 0.62980 0.83370 0.09600
C 	C 	0.20680 0.62840 0.70970 0.04300
C 	C 	0.09810 0.50680 0.65100 -0.04900
C 	C 	0.01690 0.39300 0.72160 -0.09300
C 	C 	0.04100 0.39440 0.84720 0.06800
C 	C 	0.14610 0.51180 0.90580 -0.15800
C 	C 	0.89380 0.26140 0.66600 0.36200
C 	C 	0.40090 0.62980 0.33370 0.08800
C 	C 	0.42160 0.62840 0.20970 0.04300
C 	C 	0.40870 0.50680 0.15100 -0.05100
C 	C 	0.37610 0.39300 0.22160 -0.09700
C 	C 	0.35340 0.39440 0.34720 0.03700
C 	C 	0.36570 0.51180 0.40580 -0.14300
C 	C 	0.36760 0.26140 0.16600 0.37200
C 	C 	0.77110 0.37020 0.16630 0.06800
C 	C 	0.79320 0.37160 0.29030 0.04600
C 	C 	0.90190 0.49320 0.34900 -0.07100
C 	C 	0.98310 0.60700 0.27840 -0.07100
C 	C 	0.95900 0.60560 0.15280 -0.00900
C 	C 	0.85390 0.48820 0.09420 -0.11600
C 	C 	0.10620 0.73860 0.33400 0.36400
N 	N 	0.58270 0.24160 0.63670 -0.24600
N 	N 	0.55462 0.16884 0.73850 -0.21500
N 	N 	0.55140 0.24380 0.83300 -0.24000
N 	N 	0.34110 0.75840 0.86330 -0.21900
N 	N 	0.38578 0.83116 0.76150 -0.14600
N 	N 	0.30760 0.75620 0.66700 -0.21600
N 	N 	0.41730 0.75840 0.36330 -0.22200
N 	N 	0.44538 0.83116 0.26150 -0.14800
N 	N 	0.44860 0.75620 0.16700 -0.22000
N 	N 	0.65890 0.24160 0.13670 -0.24700
N 	N 	0.61422 0.16884 0.23850 -0.21600
N 	N 	0.69240 0.24380 0.33300 -0.24200
O 	O 	0.59110 0.73360 0.94180 -0.40200
O 	O 	0.67537 0.84214 0.76480 -0.37600
O 	O 	0.62141 0.02942 0.93440 -0.69700
O 	O 	0.85750 0.26640 0.55820 -0.47400
O 	O 	0.83323 0.15786 0.73520 -0.50000
O 	O 	0.59199 0.97058 0.56560 -0.47000
O 	O 	0.40890 0.26640 0.05820 -0.47500
O 	O 	0.32463 0.15786 0.23520 -0.49800
O 	O 	0.37859 0.97058 0.06560 -0.47600
O 	O 	0.14250 0.73360 0.44180 -0.40800
O 	O 	0.16677 0.84214 0.26480 -0.37800
O 	O 	0.40801 0.02942 0.43440 -0.69900
