data_crystal

_cell_length_a 11.01780
_cell_length_b 11.01780
_cell_length_c 11.08920
_cell_angle_alpha 87.38370
_cell_angle_beta  87.38370
_cell_angle_gamma 70.58680

_symmetry_space_group_name_	'P 1'
_symmetry_space_group_name_H-M	'P 1'

loop_
_symmetry_equiv_pos_as_xyz
  x,y,z

loop_
_atom_site_label
_atom_site_type_symbol
_atom_site_fract_x
_atom_site_fract_y
_atom_site_fract_z
_atom_site_charge
Zn	Zn	0.97092 0.86870 0.00083 1.18800
Zn	Zn	0.13130 0.02908 0.49917 1.19500
Zn	Zn	0.02908 0.13130 0.99917 1.18800
Zn	Zn	0.86870 0.97092 0.50083 1.19500
Zn	Zn	0.10390 0.89610 0.25000 1.20900
Zn	Zn	0.89610 0.10390 0.75000 1.20900
H 	H 	0.99050 0.91350 0.44990 -0.07500
H 	H 	0.06250 0.43390 0.06590 0.06800
H 	H 	0.12550 0.54610 0.39150 0.03100
H 	H 	0.12860 0.35300 0.48360 0.06700
H 	H 	0.08650 0.00950 0.05010 -0.06300
H 	H 	0.56610 0.93750 0.43410 0.06700
H 	H 	0.45390 0.87450 0.10850 0.03100
H 	H 	0.64700 0.87140 0.01640 0.06500
H 	H 	0.00950 0.08650 0.55010 -0.07500
H 	H 	0.93750 0.56610 0.93410 0.06800
H 	H 	0.87450 0.45390 0.60850 0.03100
H 	H 	0.87140 0.64700 0.51640 0.06700
H 	H 	0.91350 0.99050 0.94990 -0.06300
H 	H 	0.43390 0.06250 0.56590 0.06700
H 	H 	0.54610 0.12550 0.89150 0.03100
H 	H 	0.35300 0.12860 0.98360 0.06500
C 	C 	0.09647 0.27687 0.32790 0.08400
C 	C 	0.07591 0.29991 0.20460 0.04500
C 	C 	0.07442 0.41802 0.14830 -0.06000
C 	C 	0.09172 0.50872 0.22150 -0.08200
C 	C 	0.11270 0.48310 0.34550 0.03300
C 	C 	0.11530 0.36870 0.40140 -0.14100
C 	C 	0.08863 0.63983 0.17000 0.37400
C 	C 	0.72313 0.90353 0.17210 0.08200
C 	C 	0.70009 0.92409 0.29540 0.04300
C 	C 	0.58198 0.92558 0.35170 -0.06100
C 	C 	0.49128 0.90828 0.27850 -0.08300
C 	C 	0.51690 0.88730 0.15450 0.03200
C 	C 	0.63130 0.88470 0.09860 -0.14100
C 	C 	0.36017 0.91137 0.33000 0.37400
C 	C 	0.90353 0.72313 0.67210 0.08400
C 	C 	0.92409 0.70009 0.79540 0.04500
C 	C 	0.92558 0.58198 0.85170 -0.06000
C 	C 	0.90828 0.49128 0.77850 -0.08200
C 	C 	0.88730 0.51690 0.65450 0.03300
C 	C 	0.88470 0.63130 0.59860 -0.14100
C 	C 	0.91137 0.36017 0.83000 0.37400
C 	C 	0.27687 0.09647 0.82790 0.08200
C 	C 	0.29991 0.07591 0.70460 0.04300
C 	C 	0.41802 0.07442 0.64830 -0.06100
C 	C 	0.50872 0.09172 0.72150 -0.08300
C 	C 	0.48310 0.11270 0.84550 0.03200
C 	C 	0.36870 0.11530 0.90140 -0.14100
C 	C 	0.63983 0.08863 0.67000 0.37400
N 	N 	0.09294 0.15754 0.35530 -0.23500
N 	N 	0.07141 0.10901 0.25480 -0.18800
N 	N 	0.06156 0.19136 0.16130 -0.22400
N 	N 	0.84246 0.90706 0.14470 -0.23900
N 	N 	0.89099 0.92859 0.24520 -0.19200
N 	N 	0.80864 0.93844 0.33870 -0.22800
N 	N 	0.90706 0.84246 0.64470 -0.23500
N 	N 	0.92859 0.89099 0.74520 -0.18800
N 	N 	0.93844 0.80864 0.83870 -0.22400
N 	N 	0.15754 0.09294 0.85530 -0.23900
N 	N 	0.10901 0.07141 0.75480 -0.19200
N 	N 	0.19136 0.06156 0.66130 -0.22800
O 	O 	0.13079 0.70419 0.23810 -0.45000
O 	O 	0.04505 0.67325 0.06710 -0.44300
O 	O 	0.07051 0.89621 0.43390 -0.58900
O 	O 	0.29581 0.86921 0.26190 -0.45100
O 	O 	0.32675 0.95495 0.43290 -0.44700
O 	O 	0.10379 0.92949 0.06610 -0.59600
O 	O 	0.86921 0.29581 0.76190 -0.45000
O 	O 	0.95495 0.32675 0.93290 -0.44300
O 	O 	0.92949 0.10379 0.56610 -0.58900
O 	O 	0.70419 0.13079 0.73810 -0.45100
O 	O 	0.67325 0.04505 0.56710 -0.44700
O 	O 	0.89621 0.07051 0.93390 -0.59600
