data_crystal

_cell_length_a 16.31500
_cell_length_b 17.40500
_cell_length_c 18.41000
_cell_angle_alpha 89.59200
_cell_angle_beta  84.33000
_cell_angle_gamma 82.52100

_symmetry_space_group_name_	'P 1'
_symmetry_space_group_name_H-M	'P 1'

loop_
_symmetry_equiv_pos_as_xyz
  x,y,z

loop_
_atom_site_label
_atom_site_type_symbol
_atom_site_fract_x
_atom_site_fract_y
_atom_site_fract_z
_atom_site_charge
Na	Na	0.08878 0.05066 0.00020 0.59600
Na	Na	0.91122 0.94934 0.99980 0.59600
Zn	Zn	0.52530 0.49890 0.19010 1.17900
Zn	Zn	0.47470 0.50110 0.80990 1.17900
H 	H 	0.60530 0.20490 0.15670 0.06500
H 	H 	0.45500 0.22220 0.16010 0.06300
H 	H 	0.21780 0.46550 0.17590 0.06300
H 	H 	0.21800 0.60480 0.17450 0.06700
H 	H 	0.44950 0.79400 0.17880 0.06700
H 	H 	0.59850 0.77780 0.17820 0.06300
H 	H 	0.83620 0.53380 0.16250 0.06600
H 	H 	0.83710 0.39250 0.15750 0.06800
H 	H 	0.73530 0.25230 0.04950 0.09100
H 	H 	0.83710 0.14820 0.03580 0.01700
H 	H 	0.88520 0.16890 0.24200 0.03500
H 	H 	0.78070 0.27430 0.25950 0.09300
H 	H 	0.30490 0.34230 0.05890 0.08000
H 	H 	0.20840 0.25800 0.04500 0.02100
H 	H 	0.20610 0.20350 0.25760 0.03200
H 	H 	0.30260 0.28780 0.27150 0.09000
H 	H 	0.36110 0.75760 0.06960 0.08600
H 	H 	0.26550 0.86640 0.05630 0.01600
H 	H 	0.14130 0.82050 0.24620 0.03800
H 	H 	0.24040 0.71560 0.26310 0.09400
H 	H 	0.72340 0.71430 0.06720 0.09300
H 	H 	0.82350 0.79510 0.05820 0.01100
H 	H 	0.88160 0.73740 0.25810 0.02100
H 	H 	0.77970 0.65420 0.26820 0.09900
H 	H 	0.39470 0.79510 0.84330 0.06500
H 	H 	0.54500 0.77780 0.83990 0.06300
H 	H 	0.78220 0.53450 0.82410 0.06300
H 	H 	0.78200 0.39520 0.82550 0.06700
H 	H 	0.55050 0.20600 0.82120 0.06700
H 	H 	0.40150 0.22220 0.82180 0.06300
H 	H 	0.16380 0.46620 0.83750 0.06600
H 	H 	0.16290 0.60750 0.84250 0.06800
H 	H 	0.26470 0.74770 0.95050 0.09100
H 	H 	0.16290 0.85180 0.96420 0.01700
H 	H 	0.11480 0.83110 0.75800 0.03500
H 	H 	0.21930 0.72570 0.74050 0.09300
H 	H 	0.69510 0.65770 0.94110 0.08000
H 	H 	0.79160 0.74200 0.95500 0.02100
H 	H 	0.79390 0.79650 0.74240 0.03200
H 	H 	0.69740 0.71220 0.72850 0.09000
H 	H 	0.63890 0.24240 0.93040 0.08600
H 	H 	0.73450 0.13360 0.94370 0.01600
H 	H 	0.85870 0.17950 0.75380 0.03800
H 	H 	0.75960 0.28440 0.73690 0.09400
H 	H 	0.27660 0.28570 0.93280 0.09300
H 	H 	0.17650 0.20490 0.94180 0.01100
H 	H 	0.11840 0.26260 0.74190 0.02100
H 	H 	0.22030 0.34580 0.73180 0.09900
C 	C 	0.70430 0.41550 0.16880 0.10400
C 	C 	0.67910 0.34210 0.16580 -0.15000
C 	C 	0.59580 0.32670 0.16680 0.10600
C 	C 	0.57060 0.25180 0.16110 -0.08800
C 	C 	0.48820 0.26140 0.16320 -0.07800
C 	C 	0.45960 0.34250 0.17120 0.09600
C 	C 	0.37750 0.37720 0.17430 -0.14500
C 	C 	0.34960 0.45640 0.17780 0.09700
C 	C 	0.26410 0.49150 0.17640 -0.07700
C 	C 	0.26430 0.56780 0.17600 -0.08600
C 	C 	0.34840 0.58340 0.17830 0.10200
C 	C 	0.37540 0.65620 0.17600 -0.14900
C 	C 	0.45800 0.67190 0.17600 0.10300
C 	C 	0.48400 0.74700 0.17770 -0.08600
C 	C 	0.56530 0.73820 0.17750 -0.07700
C 	C 	0.59420 0.65540 0.17570 0.10000
C 	C 	0.67610 0.62200 0.17360 -0.15400
C 	C 	0.70400 0.54140 0.17260 0.10400
C 	C 	0.79000 0.50740 0.16510 -0.08300
C 	C 	0.79050 0.42970 0.16240 -0.08100
C 	C 	0.74530 0.27380 0.15610 0.12900
C 	C 	0.76430 0.23560 0.08890 -0.17000
C 	C 	0.82560 0.17340 0.08080 0.07700
C 	C 	0.87030 0.14760 0.13740 -0.12800
C 	C 	0.85420 0.18560 0.20380 0.07100
C 	C 	0.79150 0.24900 0.21450 -0.16000
C 	C 	0.93700 0.07920 0.12720 0.34300
C 	C 	0.31330 0.32340 0.16660 0.12100
C 	C 	0.28510 0.31450 0.09870 -0.15500
C 	C 	0.22730 0.26400 0.09040 0.05100
C 	C 	0.19770 0.22240 0.14990 -0.10200
C 	C 	0.22590 0.23130 0.21770 0.05500
C 	C 	0.28370 0.28180 0.22610 -0.15500
C 	C 	0.13380 0.16900 0.13780 0.29500
C 	C 	0.31150 0.72520 0.16730 0.13000
C 	C 	0.31780 0.77050 0.10590 -0.16800
C 	C 	0.25990 0.83580 0.09760 0.06600
C 	C 	0.19450 0.85490 0.15030 -0.11500
C 	C 	0.18640 0.80880 0.21130 0.06800
C 	C 	0.24520 0.74510 0.22100 -0.16100
C 	C 	0.13440 0.92580 0.14000 0.32800
C 	C 	0.74140 0.67500 0.16840 0.14400
C 	C 	0.75520 0.71830 0.10600 -0.18300
C 	C 	0.81490 0.76680 0.10070 0.08600
C 	C 	0.86330 0.77470 0.15800 -0.14200
C 	C 	0.84980 0.73280 0.21940 0.08700
C 	C 	0.78840 0.68240 0.22570 -0.18000
C 	C 	0.92630 0.82950 0.14930 0.33600
C 	C 	0.45300 0.46470 0.34670 0.02000
C 	C 	0.44700 0.46480 0.42250 -0.01600
C 	C 	0.50340 0.49940 0.45894 0.00700
C 	C 	0.56590 0.53380 0.41950 -0.01600
C 	C 	0.57200 0.53370 0.34370 0.02000
C 	C 	0.29570 0.58450 0.83120 0.10400
C 	C 	0.32090 0.65790 0.83420 -0.15000
C 	C 	0.40420 0.67330 0.83320 0.10600
C 	C 	0.42940 0.74820 0.83890 -0.08800
C 	C 	0.51180 0.73860 0.83680 -0.07800
C 	C 	0.54040 0.65750 0.82880 0.09600
C 	C 	0.62250 0.62280 0.82570 -0.14500
C 	C 	0.65040 0.54360 0.82220 0.09700
C 	C 	0.73590 0.50850 0.82360 -0.07700
C 	C 	0.73570 0.43220 0.82400 -0.08600
C 	C 	0.65160 0.41660 0.82170 0.10200
C 	C 	0.62460 0.34380 0.82400 -0.14900
C 	C 	0.54200 0.32810 0.82400 0.10300
C 	C 	0.51600 0.25300 0.82230 -0.08600
C 	C 	0.43470 0.26180 0.82250 -0.07700
C 	C 	0.40580 0.34460 0.82430 0.10000
C 	C 	0.32390 0.37800 0.82640 -0.15400
C 	C 	0.29600 0.45860 0.82740 0.10400
C 	C 	0.21000 0.49260 0.83490 -0.08300
C 	C 	0.20950 0.57030 0.83760 -0.08100
C 	C 	0.25470 0.72620 0.84390 0.12900
C 	C 	0.23570 0.76440 0.91110 -0.17000
C 	C 	0.17440 0.82660 0.91920 0.07700
C 	C 	0.12970 0.85240 0.86260 -0.12800
C 	C 	0.14580 0.81440 0.79620 0.07100
C 	C 	0.20850 0.75100 0.78550 -0.16000
C 	C 	0.06300 0.92080 0.87280 0.34300
C 	C 	0.68670 0.67660 0.83340 0.12100
C 	C 	0.71490 0.68550 0.90130 -0.15500
C 	C 	0.77270 0.73600 0.90960 0.05100
C 	C 	0.80230 0.77760 0.85010 -0.10200
C 	C 	0.77410 0.76870 0.78230 0.05500
C 	C 	0.71630 0.71820 0.77390 -0.15500
C 	C 	0.86620 0.83100 0.86220 0.29500
C 	C 	0.68850 0.27480 0.83270 0.13000
C 	C 	0.68220 0.22950 0.89410 -0.16800
C 	C 	0.74010 0.16420 0.90240 0.06600
C 	C 	0.80550 0.14510 0.84970 -0.11500
C 	C 	0.81360 0.19120 0.78870 0.06800
C 	C 	0.75480 0.25490 0.77900 -0.16100
C 	C 	0.86560 0.07420 0.86000 0.32800
C 	C 	0.25860 0.32500 0.83160 0.14400
C 	C 	0.24480 0.28170 0.89400 -0.18300
C 	C 	0.18510 0.23320 0.89930 0.08600
C 	C 	0.13670 0.22530 0.84200 -0.14200
C 	C 	0.15020 0.26720 0.78060 0.08700
C 	C 	0.21160 0.31760 0.77430 -0.18000
C 	C 	0.07370 0.17050 0.85070 0.33600
C 	C 	0.54700 0.53530 0.65330 0.02000
C 	C 	0.55300 0.53520 0.57750 -0.01600
C 	C 	0.49660 0.50060 0.54106 0.00700
C 	C 	0.43410 0.46620 0.58050 -0.01600
C 	C 	0.42800 0.46630 0.65630 0.02000
N 	N 	0.52810 0.38130 0.17370 -0.27900
N 	N 	0.39950 0.51390 0.17990 -0.27900
N 	N 	0.52570 0.61640 0.17710 -0.28000
N 	N 	0.65430 0.48440 0.17470 -0.27800
N 	N 	0.51550 0.49920 0.30725 -0.23200
N 	N 	0.47190 0.61870 0.82630 -0.27900
N 	N 	0.60050 0.48610 0.82010 -0.27900
N 	N 	0.47430 0.38360 0.82290 -0.28000
N 	N 	0.34570 0.51560 0.82530 -0.27800
N 	N 	0.48450 0.50080 0.69275 -0.23200
O 	O 	0.95470 0.04850 0.06710 -0.34100
O 	O 	0.97340 0.05840 0.18330 -0.19800
O 	O 	0.11710 0.15190 0.07780 -0.29000
O 	O 	0.08890 0.15210 0.20220 -0.18900
O 	O 	0.14740 0.97060 0.09000 -0.29500
O 	O 	0.07080 0.93710 0.18840 -0.18200
O 	O 	0.94090 0.86610 0.09570 -0.30700
O 	O 	0.96720 0.83250 0.20880 -0.20500
O 	O 	0.04530 0.95150 0.93290 -0.34100
O 	O 	0.02660 0.94160 0.81670 -0.19800
O 	O 	0.88290 0.84810 0.92220 -0.29000
O 	O 	0.91110 0.84790 0.79780 -0.18900
O 	O 	0.85260 0.02940 0.91000 -0.29500
O 	O 	0.92920 0.06290 0.81160 -0.18200
O 	O 	0.05910 0.13390 0.90430 -0.30700
O 	O 	0.03280 0.16750 0.79120 -0.20500
