data_crystal

_cell_length_a 7.23300
_cell_length_b 21.75820
_cell_length_c 21.75820
_cell_angle_alpha 119.95200
_cell_angle_beta  90.00000
_cell_angle_gamma 90.00000

_symmetry_space_group_name_	'P 1'
_symmetry_space_group_name_H-M	'P 1'

loop_
_symmetry_equiv_pos_as_xyz
  x,y,z

loop_
_atom_site_label
_atom_site_type_symbol
_atom_site_fract_x
_atom_site_fract_y
_atom_site_fract_z
_atom_site_charge
In	In	-0.00000 -0.00000 0.50000 1.92200
In	In	0.50000 -0.00000 0.50000 1.95500
In	In	0.50000 0.50000 -0.00000 1.95000
In	In	-0.00000 0.50000 -0.00000 1.91500
In	In	-0.00000 0.00000 -0.00000 1.87600
In	In	0.50000 0.00000 -0.00000 1.91100
H 	H 	0.44921 0.79512 0.32050 0.03500
H 	H 	0.05024 0.96868 0.67744 -0.04300
H 	H 	0.05082 0.96904 0.79202 -0.02600
H 	H 	0.94921 0.20488 0.67950 0.12800
H 	H 	0.55024 0.03132 0.32256 0.02600
H 	H 	0.55082 0.03096 0.20798 0.00100
H 	H 	0.05079 0.67950 0.20488 -0.08100
H 	H 	0.44976 0.32256 0.03132 -0.00300
H 	H 	0.44918 0.20798 0.03096 -0.02000
H 	H 	0.55079 0.32050 0.79512 0.05400
H 	H 	0.94976 0.67744 0.96868 0.16600
H 	H 	0.94918 0.79202 0.96904 0.18200
H 	H 	0.55079 0.20488 0.67950 0.03100
H 	H 	0.94976 0.03132 0.32256 0.12400
H 	H 	0.94918 0.03096 0.20798 0.10000
H 	H 	0.05079 0.79512 0.32050 -0.06300
H 	H 	0.44976 0.96868 0.67744 0.05300
H 	H 	0.44918 0.96904 0.79202 0.06900
H 	H 	0.94921 0.32050 0.79512 0.15000
H 	H 	0.55024 0.67744 0.96868 0.07300
H 	H 	0.55082 0.79202 0.96904 0.09000
H 	H 	0.44921 0.67950 0.20488 0.01800
H 	H 	0.05024 0.32256 0.03132 -0.10300
H 	H 	0.05082 0.20798 0.03096 -0.12000
H 	H 	0.75017 0.45650 0.90519 0.19300
H 	H 	0.24997 0.90520 0.45650 0.15900
H 	H 	0.75003 0.09481 0.54349 0.18800
H 	H 	0.24999 0.45304 0.04799 0.14600
H 	H 	0.25000 0.07641 0.99752 0.25900
H 	H 	0.74995 0.99789 0.07644 0.28500
C 	C 	0.58560 0.76793 0.29533 0.01100
C 	C 	0.91390 0.96959 0.70417 0.14600
C 	C 	0.91420 0.96910 0.76592 0.12600
C 	C 	0.08560 0.23207 0.70467 -0.10400
C 	C 	0.41390 0.03041 0.29583 -0.02100
C 	C 	0.41420 0.03090 0.23408 -0.01500
C 	C 	0.91440 0.70467 0.23207 0.12600
C 	C 	0.58610 0.29583 0.03041 -0.01000
C 	C 	0.58580 0.23408 0.03090 -0.00800
C 	C 	0.41440 0.29533 0.76793 -0.00300
C 	C 	0.08610 0.70417 0.96959 -0.07300
C 	C 	0.08580 0.76592 0.96910 -0.09200
C 	C 	0.41440 0.23207 0.70467 0.00500
C 	C 	0.08610 0.03041 0.29583 -0.13100
C 	C 	0.08580 0.03090 0.23408 -0.12600
C 	C 	0.91440 0.76793 0.29533 0.12200
C 	C 	0.58610 0.96959 0.70417 0.03900
C 	C 	0.58580 0.96910 0.76592 0.02200
C 	C 	0.08560 0.29533 0.76793 -0.11100
C 	C 	0.41390 0.70417 0.96959 0.03200
C 	C 	0.41420 0.76592 0.96910 0.01200
C 	C 	0.58560 0.70467 0.23207 0.01300
C 	C 	0.91390 0.29583 0.03041 0.10400
C 	C 	0.91420 0.23408 0.03090 0.10600
C 	C 	0.75000 0.87070 0.39404 0.46300
C 	C 	0.75000 0.79786 0.32770 -0.11800
C 	C 	0.75000 0.97748 0.60614 0.48800
C 	C 	0.75000 0.97119 0.67245 -0.11300
C 	C 	0.75000 0.96867 0.79751 -0.07400
C 	C 	0.75000 0.97075 0.86875 0.45100
C 	C 	0.25000 0.12930 0.60596 0.44700
C 	C 	0.25000 0.20214 0.67230 -0.10800
C 	C 	0.25000 0.02252 0.39386 0.45300
C 	C 	0.25000 0.02881 0.32755 -0.12300
C 	C 	0.25000 0.03133 0.20249 -0.14200
C 	C 	0.25000 0.02925 0.13125 0.44000
C 	C 	0.75000 0.60596 0.12930 0.46000
C 	C 	0.75000 0.67230 0.20214 -0.14500
C 	C 	0.75000 0.39386 0.02252 0.48100
C 	C 	0.75000 0.32755 0.02881 -0.17000
C 	C 	0.75000 0.20249 0.03133 -0.18400
C 	C 	0.75000 0.13125 0.02925 0.46000
C 	C 	0.25000 0.39404 0.87070 0.43900
C 	C 	0.25000 0.32770 0.79786 -0.07300
C 	C 	0.25000 0.60614 0.97748 0.47100
C 	C 	0.25000 0.67245 0.97119 -0.07500
C 	C 	0.25000 0.79751 0.96867 -0.03200
C 	C 	0.25000 0.86875 0.97075 0.43000
O 	O 	0.90435 0.89714 0.41928 -0.43600
O 	O 	0.90194 0.97733 0.57995 -0.43500
O 	O 	0.90353 0.97182 0.89584 -0.33500
O 	O 	0.40435 0.10286 0.58072 -0.61800
O 	O 	0.40194 0.02267 0.42005 -0.62600
O 	O 	0.40353 0.02818 0.10416 -0.68900
O 	O 	0.59565 0.58072 0.10286 -0.60900
O 	O 	0.59806 0.42005 0.02267 -0.64600
O 	O 	0.59647 0.10416 0.02818 -0.69200
O 	O 	0.09565 0.41928 0.89714 -0.55600
O 	O 	0.09806 0.57995 0.97733 -0.54200
O 	O 	0.09647 0.89584 0.97182 -0.44700
O 	O 	0.09565 0.10286 0.58072 -0.67500
O 	O 	0.09806 0.02267 0.42005 -0.68300
O 	O 	0.09647 0.02818 0.10416 -0.74600
O 	O 	0.59565 0.89714 0.41928 -0.50100
O 	O 	0.59806 0.97733 0.57995 -0.49900
O 	O 	0.59647 0.97182 0.89584 -0.39700
O 	O 	0.40435 0.41928 0.89714 -0.50000
O 	O 	0.40194 0.57995 0.97733 -0.48600
O 	O 	0.40353 0.89584 0.97182 -0.39300
O 	O 	0.90435 0.58072 0.10286 -0.54000
O 	O 	0.90194 0.42005 0.02267 -0.57700
O 	O 	0.90353 0.10416 0.02818 -0.62300
O 	O 	0.75000 0.04861 0.49883 -0.80300
O 	O 	0.25000 0.95139 0.50117 -0.69100
O 	O 	0.75000 0.50117 0.95139 -0.62600
O 	O 	0.25000 0.49883 0.04861 -0.86500
O 	O 	0.75000 0.97584 0.02416 -0.81000
O 	O 	0.25000 0.02416 0.97584 -0.85000
