data_crystal

_cell_length_a 11.09500
_cell_length_b 17.97000
_cell_length_c 19.48400
_cell_angle_alpha 90.00000
_cell_angle_beta  90.00000
_cell_angle_gamma 90.00000

_symmetry_space_group_name_	'P 1'
_symmetry_space_group_name_H-M	'P 1'

loop_
_symmetry_equiv_pos_as_xyz
  x,y,z

loop_
_atom_site_label
_atom_site_type_symbol
_atom_site_fract_x
_atom_site_fract_y
_atom_site_fract_z
_atom_site_charge
Ti	Ti	0.09970 0.45850 0.55380 3.08200
Ti	Ti	0.40030 0.54150 0.05380 3.08200
Ti	Ti	0.90030 0.95850 0.94620 3.08000
Ti	Ti	0.59970 0.04150 0.44620 3.08200
Ti	Ti	0.90030 0.54150 0.44620 3.08200
Ti	Ti	0.59970 0.45850 0.94620 3.08200
Ti	Ti	0.09970 0.04150 0.05380 3.08000
Ti	Ti	0.40030 0.95850 0.55380 3.08200
H 	H 	0.23210 0.80160 0.49810 0.16300
H 	H 	0.12720 0.67620 0.50850 0.20400
H 	H 	0.24080 0.50570 0.39250 0.21900
H 	H 	0.39190 0.57650 0.34790 -0.09300
H 	H 	0.49910 0.69730 0.34050 -0.09700
H 	H 	0.51750 0.81930 0.37190 0.19500
H 	H 	0.69930 0.61000 0.80450 0.19200
H 	H 	0.68290 0.63570 0.68900 -0.07900
H 	H 	0.57390 0.62040 0.57770 -0.09200
H 	H 	0.42760 0.56560 0.51430 0.22500
H 	H 	0.30560 0.45830 0.68180 0.17600
H 	H 	0.40770 0.47790 0.79480 0.19800
H 	H 	0.26790 0.19840 0.99810 0.16200
H 	H 	0.37280 0.32380 0.00850 0.19600
H 	H 	0.25920 0.49430 0.89250 0.21800
H 	H 	0.10810 0.42350 0.84790 -0.08800
H 	H 	0.00090 0.30270 0.84050 -0.09200
H 	H 	0.98250 0.18070 0.87190 0.18900
H 	H 	0.80070 0.39000 0.30450 0.19600
H 	H 	0.81710 0.36430 0.18900 -0.07900
H 	H 	0.92610 0.37960 0.07770 -0.09800
H 	H 	0.07240 0.43440 0.01430 0.22900
H 	H 	0.19440 0.54170 0.18180 0.17800
H 	H 	0.09230 0.52210 0.29480 0.20000
H 	H 	0.76790 0.30160 0.00190 0.16300
H 	H 	0.87280 0.17620 0.99150 0.19600
H 	H 	0.75920 0.00570 0.10750 0.21800
H 	H 	0.60810 0.07650 0.15210 -0.09100
H 	H 	0.50090 0.19730 0.15950 -0.09500
H 	H 	0.48250 0.31930 0.12810 0.19500
H 	H 	0.30070 0.11000 0.69550 0.19500
H 	H 	0.31710 0.13570 0.81100 -0.08000
H 	H 	0.42610 0.12040 0.92230 -0.09600
H 	H 	0.57240 0.06560 0.98570 0.23100
H 	H 	0.69440 0.95830 0.81820 0.18200
H 	H 	0.59230 0.97790 0.70520 0.19700
H 	H 	0.73210 0.69840 0.50190 0.16500
H 	H 	0.62720 0.82380 0.49150 0.20500
H 	H 	0.74080 0.99430 0.60750 0.21900
H 	H 	0.89190 0.92350 0.65210 -0.09600
H 	H 	0.99910 0.80270 0.65950 -0.10300
H 	H 	0.01750 0.68070 0.62810 0.20600
H 	H 	0.19930 0.89000 0.19550 0.19400
H 	H 	0.18290 0.86430 0.31100 -0.07700
H 	H 	0.07390 0.87960 0.42230 -0.09200
H 	H 	0.92760 0.93440 0.48570 0.22400
H 	H 	0.80560 0.04170 0.31820 0.17100
H 	H 	0.90770 0.02210 0.20520 0.20200
H 	H 	0.76790 0.19840 0.50190 0.16400
H 	H 	0.87280 0.32380 0.49150 0.20500
H 	H 	0.75920 0.49430 0.60750 0.22000
H 	H 	0.60810 0.42350 0.65210 -0.09200
H 	H 	0.50090 0.30270 0.65950 -0.09600
H 	H 	0.48250 0.18070 0.62810 0.19600
H 	H 	0.30070 0.39000 0.19550 0.19300
H 	H 	0.31710 0.36430 0.31100 -0.07800
H 	H 	0.42610 0.37960 0.42230 -0.09200
H 	H 	0.57240 0.43440 0.48570 0.22500
H 	H 	0.69440 0.54170 0.31820 0.17600
H 	H 	0.59230 0.52210 0.20520 0.19800
H 	H 	0.73210 0.80160 0.00190 0.16200
H 	H 	0.62720 0.67620 0.99150 0.19600
H 	H 	0.74080 0.50570 0.10750 0.21800
H 	H 	0.89190 0.57650 0.15210 -0.08800
H 	H 	0.99910 0.69730 0.15950 -0.09200
H 	H 	0.01750 0.81930 0.12810 0.18900
H 	H 	0.19930 0.61000 0.69550 0.19600
H 	H 	0.18290 0.63570 0.81100 -0.07900
H 	H 	0.07390 0.62040 0.92230 -0.09800
H 	H 	0.92760 0.56560 0.98570 0.22900
H 	H 	0.80560 0.45830 0.81820 0.17800
H 	H 	0.90770 0.47790 0.70520 0.20000
H 	H 	0.23210 0.69840 0.99810 0.16300
H 	H 	0.12720 0.82380 0.00850 0.19600
H 	H 	0.24080 0.99430 0.89250 0.21800
H 	H 	0.39190 0.92350 0.84790 -0.09100
H 	H 	0.49910 0.80270 0.84050 -0.09500
H 	H 	0.51750 0.68070 0.87190 0.19500
H 	H 	0.69930 0.89000 0.30450 0.19500
H 	H 	0.68290 0.86430 0.18900 -0.08000
H 	H 	0.57390 0.87960 0.07770 -0.09600
H 	H 	0.42760 0.93440 0.01430 0.23100
H 	H 	0.30560 0.04170 0.18180 0.18200
H 	H 	0.40770 0.02210 0.29480 0.19700
H 	H 	0.26790 0.30160 0.49810 0.16500
H 	H 	0.37280 0.17620 0.50850 0.20500
H 	H 	0.25920 0.00570 0.39250 0.21900
H 	H 	0.10810 0.07650 0.34790 -0.09600
H 	H 	0.00090 0.19730 0.34050 -0.10300
H 	H 	0.98250 0.31930 0.37190 0.20600
H 	H 	0.80070 0.11000 0.80450 0.19400
H 	H 	0.81710 0.13570 0.68900 -0.07700
H 	H 	0.92610 0.12040 0.57770 -0.09200
H 	H 	0.07240 0.06560 0.51430 0.22400
H 	H 	0.19440 0.95830 0.68180 0.17100
H 	H 	0.09230 0.97790 0.79480 0.20200
C 	C 	0.37470 0.82150 0.43760 0.43300
C 	C 	0.28470 0.78010 0.46660 -0.51200
C 	C 	0.27230 0.70390 0.44820 0.40200
C 	C 	0.17990 0.65730 0.47580 -0.58400
C 	C 	0.16810 0.58520 0.45460 0.51900
C 	C 	0.24900 0.55500 0.40610 -0.54000
C 	C 	0.33880 0.59740 0.37930 0.31900
C 	C 	0.35270 0.67360 0.39870 -0.35300
C 	C 	0.44490 0.71770 0.37170 0.29200
C 	C 	0.45610 0.79030 0.39040 -0.44800
C 	C 	0.55200 0.54120 0.81040 0.53000
C 	C 	0.63740 0.58900 0.77880 -0.48300
C 	C 	0.62750 0.60400 0.70960 0.30200
C 	C 	0.53500 0.57230 0.66970 -0.36200
C 	C 	0.52130 0.58730 0.59880 0.33300
C 	C 	0.43400 0.55490 0.56090 -0.50900
C 	C 	0.35120 0.50430 0.59210 0.57400
C 	C 	0.36060 0.49030 0.66120 -0.59300
C 	C 	0.45080 0.52310 0.70180 0.45100
C 	C 	0.46240 0.50930 0.77320 -0.58400
C 	C 	0.12530 0.17850 0.93760 0.42700
C 	C 	0.21530 0.21990 0.96660 -0.50400
C 	C 	0.22770 0.29610 0.94820 0.39400
C 	C 	0.32010 0.34270 0.97580 -0.56800
C 	C 	0.33190 0.41480 0.95460 0.51200
C 	C 	0.25100 0.44500 0.90610 -0.53200
C 	C 	0.16120 0.40260 0.87930 0.31200
C 	C 	0.14730 0.32640 0.89870 -0.34400
C 	C 	0.05510 0.28230 0.87170 0.28200
C 	C 	0.04390 0.20970 0.89040 -0.43400
C 	C 	0.94800 0.45880 0.31040 0.53900
C 	C 	0.86260 0.41100 0.27880 -0.48800
C 	C 	0.87250 0.39600 0.20960 0.30800
C 	C 	0.96500 0.42770 0.16970 -0.36500
C 	C 	0.97870 0.41270 0.09880 0.35500
C 	C 	0.06600 0.44510 0.06090 -0.53100
C 	C 	0.14880 0.49570 0.09210 0.58100
C 	C 	0.13940 0.50970 0.16120 -0.60000
C 	C 	0.04920 0.47690 0.20180 0.45200
C 	C 	0.03760 0.49070 0.27320 -0.59300
C 	C 	0.62530 0.32150 0.06240 0.43100
C 	C 	0.71530 0.28010 0.03340 -0.50800
C 	C 	0.72770 0.20390 0.05180 0.39500
C 	C 	0.82010 0.15730 0.02420 -0.56800
C 	C 	0.83190 0.08520 0.04540 0.51300
C 	C 	0.75100 0.05500 0.09390 -0.53400
C 	C 	0.66120 0.09740 0.12070 0.31400
C 	C 	0.64730 0.17360 0.10130 -0.34900
C 	C 	0.55510 0.21770 0.12830 0.28800
C 	C 	0.54390 0.29030 0.10960 -0.44500
C 	C 	0.44800 0.04120 0.68960 0.53300
C 	C 	0.36260 0.08900 0.72120 -0.48800
C 	C 	0.37250 0.10400 0.79040 0.30900
C 	C 	0.46500 0.07230 0.83030 -0.37200
C 	C 	0.47870 0.08730 0.90120 0.34600
C 	C 	0.56600 0.05490 0.93910 -0.52400
C 	C 	0.64880 0.00430 0.90790 0.59600
C 	C 	0.63940 0.99030 0.83880 -0.61800
C 	C 	0.54920 0.02310 0.79820 0.46600
C 	C 	0.53760 0.00930 0.72680 -0.58600
C 	C 	0.87470 0.67850 0.56240 0.44100
C 	C 	0.78470 0.71990 0.53340 -0.51800
C 	C 	0.77230 0.79610 0.55180 0.40700
C 	C 	0.67990 0.84270 0.52420 -0.58700
C 	C 	0.66810 0.91480 0.54540 0.52100
C 	C 	0.74900 0.94500 0.59390 -0.54400
C 	C 	0.83880 0.90260 0.62070 0.32400
C 	C 	0.85270 0.82640 0.60130 -0.36100
C 	C 	0.94490 0.78230 0.62830 0.30300
C 	C 	0.95610 0.70970 0.60960 -0.46600
C 	C 	0.05200 0.95880 0.18960 0.53300
C 	C 	0.13740 0.91100 0.22120 -0.48200
C 	C 	0.12750 0.89600 0.29040 0.30100
C 	C 	0.03500 0.92770 0.33030 -0.35600
C 	C 	0.02130 0.91270 0.40120 0.33600
C 	C 	0.93400 0.94510 0.43910 -0.50800
C 	C 	0.85120 0.99570 0.40790 0.56200
C 	C 	0.86060 0.00970 0.33880 -0.57500
C 	C 	0.95080 0.97690 0.29820 0.44200
C 	C 	0.96240 0.99070 0.22680 -0.58700
C 	C 	0.62530 0.17850 0.56240 0.43300
C 	C 	0.71530 0.21990 0.53340 -0.51200
C 	C 	0.72770 0.29610 0.55180 0.40200
C 	C 	0.82010 0.34270 0.52420 -0.58400
C 	C 	0.83190 0.41480 0.54540 0.51900
C 	C 	0.75100 0.44500 0.59390 -0.54000
C 	C 	0.66120 0.40260 0.62070 0.31900
C 	C 	0.64730 0.32640 0.60130 -0.35300
C 	C 	0.55510 0.28230 0.62830 0.29200
C 	C 	0.54390 0.20970 0.60960 -0.44800
C 	C 	0.44800 0.45880 0.18960 0.53000
C 	C 	0.36260 0.41100 0.22120 -0.48300
C 	C 	0.37250 0.39600 0.29040 0.30200
C 	C 	0.46500 0.42770 0.33030 -0.36200
C 	C 	0.47870 0.41270 0.40120 0.33300
C 	C 	0.56600 0.44510 0.43910 -0.50900
C 	C 	0.64880 0.49570 0.40790 0.57400
C 	C 	0.63940 0.50970 0.33880 -0.59300
C 	C 	0.54920 0.47690 0.29820 0.45100
C 	C 	0.53760 0.49070 0.22680 -0.58400
C 	C 	0.87470 0.82150 0.06240 0.42700
C 	C 	0.78470 0.78010 0.03340 -0.50400
C 	C 	0.77230 0.70390 0.05180 0.39400
C 	C 	0.67990 0.65730 0.02420 -0.56800
C 	C 	0.66810 0.58520 0.04540 0.51200
C 	C 	0.74900 0.55500 0.09390 -0.53200
C 	C 	0.83880 0.59740 0.12070 0.31200
C 	C 	0.85270 0.67360 0.10130 -0.34400
C 	C 	0.94490 0.71770 0.12830 0.28200
C 	C 	0.95610 0.79030 0.10960 -0.43400
C 	C 	0.05200 0.54120 0.68960 0.53900
C 	C 	0.13740 0.58900 0.72120 -0.48800
C 	C 	0.12750 0.60400 0.79040 0.30800
C 	C 	0.03500 0.57230 0.83030 -0.36500
C 	C 	0.02130 0.58730 0.90120 0.35500
C 	C 	0.93400 0.55490 0.93910 -0.53100
C 	C 	0.85120 0.50430 0.90790 0.58100
C 	C 	0.86060 0.49030 0.83880 -0.60000
C 	C 	0.95080 0.52310 0.79820 0.45200
C 	C 	0.96240 0.50930 0.72680 -0.59300
C 	C 	0.37470 0.67850 0.93760 0.43100
C 	C 	0.28470 0.71990 0.96660 -0.50800
C 	C 	0.27230 0.79610 0.94820 0.39500
C 	C 	0.17990 0.84270 0.97580 -0.56800
C 	C 	0.16810 0.91480 0.95460 0.51300
C 	C 	0.24900 0.94500 0.90610 -0.53400
C 	C 	0.33880 0.90260 0.87930 0.31400
C 	C 	0.35270 0.82640 0.89870 -0.34900
C 	C 	0.44490 0.78230 0.87170 0.28800
C 	C 	0.45610 0.70970 0.89040 -0.44500
C 	C 	0.55200 0.95880 0.31040 0.53300
C 	C 	0.63740 0.91100 0.27880 -0.48800
C 	C 	0.62750 0.89600 0.20960 0.30900
C 	C 	0.53500 0.92770 0.16970 -0.37200
C 	C 	0.52130 0.91270 0.09880 0.34600
C 	C 	0.43400 0.94510 0.06090 -0.52400
C 	C 	0.35120 0.99570 0.09210 0.59600
C 	C 	0.36060 0.00970 0.16120 -0.61800
C 	C 	0.45080 0.97690 0.20180 0.46600
C 	C 	0.46240 0.99070 0.27320 -0.58600
C 	C 	0.12530 0.32150 0.43760 0.44100
C 	C 	0.21530 0.28010 0.46660 -0.51800
C 	C 	0.22770 0.20390 0.44820 0.40700
C 	C 	0.32010 0.15730 0.47580 -0.58700
C 	C 	0.33190 0.08520 0.45460 0.52100
C 	C 	0.25100 0.05500 0.40610 -0.54400
C 	C 	0.16120 0.09740 0.37930 0.32400
C 	C 	0.14730 0.17360 0.39870 -0.36100
C 	C 	0.05510 0.21770 0.37170 0.30300
C 	C 	0.04390 0.29030 0.39040 -0.46600
C 	C 	0.94800 0.04120 0.81040 0.53300
C 	C 	0.86260 0.08900 0.77880 -0.48200
C 	C 	0.87250 0.10400 0.70960 0.30100
C 	C 	0.96500 0.07230 0.66970 -0.35600
C 	C 	0.97870 0.08730 0.59880 0.33600
C 	C 	0.06600 0.05490 0.56090 -0.50800
C 	C 	0.14880 0.00430 0.59210 0.56200
C 	C 	0.13940 0.99030 0.66120 -0.57500
C 	C 	0.04920 0.02310 0.70180 0.44200
C 	C 	0.03760 0.00930 0.77320 -0.58700
O 	O 	0.38380 0.89630 0.45360 -0.61300
O 	O 	0.07710 0.54130 0.48010 -1.07700
O 	O 	0.56010 0.53160 0.88000 -0.86500
O 	O 	0.26340 0.47270 0.55330 -0.93300
O 	O 	0.11620 0.10370 0.95360 -0.61100
O 	O 	0.42290 0.45870 0.98010 -1.07500
O 	O 	0.93990 0.46840 0.38000 -0.86600
O 	O 	0.23660 0.52730 0.05330 -0.93700
O 	O 	0.61620 0.39630 0.04640 -0.61300
O 	O 	0.92290 0.04130 0.01990 -1.07100
O 	O 	0.43990 0.03160 0.62000 -0.86500
O 	O 	0.73660 0.97270 0.94670 -0.94700
O 	O 	0.88380 0.60370 0.54640 -0.61700
O 	O 	0.57710 0.95870 0.51990 -1.07800
O 	O 	0.06010 0.96840 0.12000 -0.86500
O 	O 	0.76340 0.02730 0.44670 -0.92700
O 	O 	0.61620 0.10370 0.54640 -0.61300
O 	O 	0.92290 0.45870 0.51990 -1.07700
O 	O 	0.43990 0.46840 0.12000 -0.86500
O 	O 	0.73660 0.52730 0.44670 -0.93300
O 	O 	0.88380 0.89630 0.04640 -0.61100
O 	O 	0.57710 0.54130 0.01990 -1.07500
O 	O 	0.06010 0.53160 0.62000 -0.86600
O 	O 	0.76340 0.47270 0.94670 -0.93700
O 	O 	0.38380 0.60370 0.95360 -0.61300
O 	O 	0.07710 0.95870 0.98010 -1.07100
O 	O 	0.56010 0.96840 0.38000 -0.86500
O 	O 	0.26340 0.02730 0.05330 -0.94700
O 	O 	0.11620 0.39630 0.45360 -0.61700
O 	O 	0.42290 0.04130 0.48010 -1.07800
O 	O 	0.93990 0.03160 0.88000 -0.86500
O 	O 	0.23660 0.97270 0.55330 -0.92700
