data_crystal

_cell_length_a 9.17890
_cell_length_b 10.92670
_cell_length_c 11.37100
_cell_angle_alpha 117.84400
_cell_angle_beta  100.86100
_cell_angle_gamma 99.34400

_symmetry_space_group_name_	'P 1'
_symmetry_space_group_name_H-M	'P 1'

loop_
_symmetry_equiv_pos_as_xyz
  x,y,z

loop_
_atom_site_label
_atom_site_type_symbol
_atom_site_fract_x
_atom_site_fract_y
_atom_site_fract_z
_atom_site_charge
Zn	Zn	0.19095 0.62355 0.12211 1.18500
Zn	Zn	0.80905 0.37645 0.87789 1.20300
Zn	Zn	0.50000 0.50000 -0.00000 1.20100
H 	H 	0.62530 0.82780 0.97670 -0.01900
H 	H 	0.29420 0.00970 0.08850 -0.02800
H 	H 	0.69420 0.39080 0.50710 0.04600
H 	H 	0.38640 0.57330 0.67650 0.05700
H 	H 	0.24960 0.23100 0.70380 0.02700
H 	H 	0.96770 0.17760 0.65400 -0.00400
H 	H 	0.37470 0.17220 0.02330 0.10800
H 	H 	0.70580 0.99030 0.91150 0.12100
H 	H 	0.30580 0.60920 0.49290 0.04500
H 	H 	0.61360 0.42670 0.32350 0.03900
H 	H 	0.75040 0.76900 0.29620 0.02100
H 	H 	0.03230 0.82240 0.34600 0.02100
C 	C 	0.44840 0.90050 0.03740 -0.29900
C 	C 	0.57400 0.89700 0.98570 0.24000
C 	C 	0.37720 0.00500 0.05210 0.16700
C 	C 	0.39190 0.79010 0.07310 0.47100
C 	C 	0.54670 0.47420 0.60720 -0.07800
C 	C 	0.61530 0.43400 0.50420 -0.02000
C 	C 	0.43150 0.54300 0.60480 -0.02800
C 	C 	0.59810 0.45510 0.73010 0.38700
C 	C 	0.19760 0.28380 0.76330 0.01400
C 	C 	0.04160 0.25390 0.73470 0.03500
C 	C 	0.55160 0.09950 0.96260 0.10700
C 	C 	0.42600 0.10300 0.01430 -0.27000
C 	C 	0.62280 0.99500 0.94790 -0.19100
C 	C 	0.60810 0.20990 0.92690 0.34000
C 	C 	0.45330 0.52580 0.39280 -0.09600
C 	C 	0.38470 0.56600 0.49580 -0.00500
C 	C 	0.56850 0.45700 0.39520 -0.01200
C 	C 	0.40190 0.54490 0.26990 0.39500
C 	C 	0.80240 0.71620 0.23670 0.02600
C 	C 	0.95840 0.74610 0.26530 -0.00300
N 	N 	0.26430 0.39930 0.88850 -0.17800
N 	N 	0.15140 0.44320 0.93820 -0.19300
N 	N 	0.01510 0.35610 0.84570 -0.22400
N 	N 	0.73570 0.60070 0.11150 -0.20800
N 	N 	0.84860 0.55680 0.06180 -0.24100
N 	N 	0.98490 0.64390 0.15430 -0.23700
O 	O 	0.27010 0.79080 0.10560 -0.52400
O 	O 	0.46690 0.70510 0.07200 -0.53500
O 	O 	0.53620 0.50180 0.82380 -0.44400
O 	O 	0.70250 0.39100 0.72490 -0.49900
O 	O 	0.72990 0.20920 0.89440 -0.47300
O 	O 	0.53310 0.29490 0.92800 -0.44600
O 	O 	0.46380 0.49820 0.17620 -0.48900
O 	O 	0.29750 0.60900 0.27510 -0.51200
