data_crystal

_cell_length_a 9.19130
_cell_length_b 9.19130
_cell_length_c 18.32490
_cell_angle_alpha 89.74870
_cell_angle_beta  89.74870
_cell_angle_gamma 78.25220

_symmetry_space_group_name_	'P 1'
_symmetry_space_group_name_H-M	'P 1'

loop_
_symmetry_equiv_pos_as_xyz
  x,y,z

loop_
_atom_site_label
_atom_site_type_symbol
_atom_site_fract_x
_atom_site_fract_y
_atom_site_fract_z
_atom_site_charge
Al	Al	0.13252 0.40778 0.53100 2.40300
Al	Al	0.59526 0.15184 0.56662 2.39800
Al	Al	0.45479 0.37687 0.81835 2.39900
Al	Al	0.59222 0.86748 0.96900 2.40100
Al	Al	0.84816 0.40474 0.93338 2.39700
Al	Al	0.62313 0.54521 0.68165 2.39900
Al	Al	0.86748 0.59222 0.46900 2.40200
Al	Al	0.40474 0.84816 0.43338 2.39700
Al	Al	0.54521 0.62313 0.18165 2.39900
Al	Al	0.40778 0.13252 0.03100 2.40100
Al	Al	0.15184 0.59526 0.06662 2.39700
Al	Al	0.37687 0.45479 0.31835 2.39900
P 	P 	0.37633 0.19141 0.44011 0.78800
P 	P 	0.16995 0.64745 0.42415 0.69800
P 	P 	0.37274 0.38514 0.65668 0.75500
P 	P 	0.80859 0.62367 0.05989 0.78800
P 	P 	0.35255 0.83005 0.07585 0.69800
P 	P 	0.61486 0.62726 0.84332 0.75500
P 	P 	0.62367 0.80859 0.55989 0.78800
P 	P 	0.83005 0.35255 0.57585 0.69800
P 	P 	0.62726 0.61486 0.34332 0.75500
P 	P 	0.19141 0.37633 0.94011 0.78800
P 	P 	0.64745 0.16995 0.92415 0.69800
P 	P 	0.38514 0.37274 0.15668 0.75500
O 	O 	0.25270 0.23850 0.49546 -0.67200
O 	O 	0.46750 0.23610 0.63120 -0.76600
O 	O 	0.22360 0.41480 0.61912 -0.60100
O 	O 	0.52820 0.17500 0.47796 -0.77900
O 	O 	0.34150 0.37110 0.73880 -0.63200
O 	O 	0.36460 0.03640 0.41080 -0.70500
O 	O 	0.23350 0.54210 0.48580 -0.65000
O 	O 	0.23890 0.78810 0.42680 -0.70900
O 	O 	0.99850 0.29730 0.57178 -0.53100
O 	O 	0.20990 0.57230 0.34954 -0.64900
O 	O 	0.36880 0.29260 0.37466 -0.65100
O 	O 	0.45520 0.51200 0.64320 -0.72800
O 	O 	0.76150 0.74730 0.00454 -0.66800
O 	O 	0.76390 0.53250 0.86880 -0.77100
O 	O 	0.58520 0.77640 0.88088 -0.60700
O 	O 	0.82500 0.47180 0.02204 -0.77800
O 	O 	0.62890 0.65850 0.76120 -0.63400
O 	O 	0.96360 0.63540 0.08920 -0.69900
O 	O 	0.45790 0.76650 0.01420 -0.64800
O 	O 	0.21190 0.76110 0.07320 -0.71100
O 	O 	0.70270 0.00150 0.92822 -0.52800
O 	O 	0.42770 0.79010 0.15046 -0.64800
O 	O 	0.70740 0.63120 0.12534 -0.64900
O 	O 	0.48800 0.54480 0.85680 -0.72900
O 	O 	0.74730 0.76150 0.50454 -0.67200
O 	O 	0.53250 0.76390 0.36880 -0.76600
O 	O 	0.77640 0.58520 0.38088 -0.60100
O 	O 	0.47180 0.82500 0.52204 -0.77900
O 	O 	0.65850 0.62890 0.26120 -0.63200
O 	O 	0.63540 0.96360 0.58920 -0.70500
O 	O 	0.76650 0.45790 0.51420 -0.65000
O 	O 	0.76110 0.21190 0.57320 -0.70900
O 	O 	0.00150 0.70270 0.42822 -0.53100
O 	O 	0.79010 0.42770 0.65046 -0.64900
O 	O 	0.63120 0.70740 0.62534 -0.65100
O 	O 	0.54480 0.48800 0.35680 -0.72800
O 	O 	0.23850 0.25270 0.99546 -0.66800
O 	O 	0.23610 0.46750 0.13120 -0.77100
O 	O 	0.41480 0.22360 0.11912 -0.60700
O 	O 	0.17500 0.52820 0.97796 -0.77800
O 	O 	0.37110 0.34150 0.23880 -0.63400
O 	O 	0.03640 0.36460 0.91080 -0.69900
O 	O 	0.54210 0.23350 0.98580 -0.64800
O 	O 	0.78810 0.23890 0.92680 -0.71100
O 	O 	0.29730 0.99850 0.07178 -0.52800
O 	O 	0.57230 0.20990 0.84954 -0.64800
O 	O 	0.29260 0.36880 0.87466 -0.64900
O 	O 	0.51200 0.45520 0.14320 -0.72900
F 	F 	0.98643 0.57623 0.55387 -0.90300
F 	F 	0.42377 0.01357 0.94613 -0.89800
F 	F 	0.01357 0.42377 0.44613 -0.90300
F 	F 	0.57623 0.98643 0.05387 -0.89800
F 	F 	0.60930 0.39070 0.75000 -0.93400
F 	F 	0.39070 0.60930 0.25000 -0.93400
