data_crystal

_cell_length_a 8.94540
_cell_length_b 10.69810
_cell_length_c 18.44740
_cell_angle_alpha 90.00000
_cell_angle_beta  90.00000
_cell_angle_gamma 90.00000

_symmetry_space_group_name_	'P 1'
_symmetry_space_group_name_H-M	'P 1'

loop_
_symmetry_equiv_pos_as_xyz
  x,y,z

loop_
_atom_site_label
_atom_site_type_symbol
_atom_site_fract_x
_atom_site_fract_y
_atom_site_fract_z
_atom_site_charge
Zn	Zn	0.13167 0.01460 0.60247 1.19400
Zn	Zn	0.63167 0.98540 0.39753 1.19300
Zn	Zn	0.13167 0.48540 0.10247 1.19500
Zn	Zn	0.63167 0.51460 0.89753 1.19300
H 	H 	0.82700 0.95800 0.52800 -0.03200
H 	H 	0.23620 0.35860 0.40310 0.00900
H 	H 	0.84250 0.30020 0.27170 0.17400
H 	H 	0.75170 0.20110 0.30740 0.15200
H 	H 	0.96320 0.67440 0.70620 0.06400
H 	H 	0.85120 0.53100 0.78020 -0.01700
H 	H 	0.58770 0.78610 0.86030 -0.01300
H 	H 	0.69420 0.93700 0.78890 0.07100
H 	H 	0.32700 0.04200 0.47200 -0.03500
H 	H 	0.73620 0.64140 0.59690 0.00600
H 	H 	0.34250 0.69980 0.72830 0.18100
H 	H 	0.25170 0.79890 0.69260 0.15600
H 	H 	0.46320 0.32560 0.29380 0.07000
H 	H 	0.35120 0.46900 0.21980 -0.01300
H 	H 	0.08770 0.21390 0.13970 -0.00900
H 	H 	0.19420 0.06300 0.21110 0.07200
H 	H 	0.82700 0.54200 0.02800 -0.02900
H 	H 	0.23620 0.14140 0.90310 0.00900
H 	H 	0.84250 0.19980 0.77170 0.17400
H 	H 	0.75170 0.29890 0.80740 0.15200
H 	H 	0.96320 0.82560 0.20620 0.06300
H 	H 	0.85120 0.96900 0.28020 -0.01700
H 	H 	0.58770 0.71390 0.36030 -0.01300
H 	H 	0.69420 0.56300 0.28890 0.07000
H 	H 	0.32700 0.45800 0.97200 -0.03200
H 	H 	0.73620 0.85860 0.09690 0.00600
H 	H 	0.34250 0.80020 0.22830 0.18100
H 	H 	0.25170 0.70110 0.19260 0.15600
H 	H 	0.46320 0.17440 0.79380 0.06900
H 	H 	0.35120 0.03100 0.71980 -0.01400
H 	H 	0.08770 0.28610 0.63970 -0.00900
H 	H 	0.19420 0.43700 0.71110 0.07300
C 	C 	0.87450 0.01980 0.50100 0.06900
C 	C 	0.15580 0.30410 0.40790 0.10100
C 	C 	0.93310 0.23800 0.35900 0.13900
C 	C 	0.92200 0.15360 0.41840 -0.06100
C 	C 	0.03570 0.15640 0.46840 0.13000
C 	C 	0.92070 0.92230 0.69480 0.27900
C 	C 	0.88860 0.69990 0.73810 -0.08700
C 	C 	0.84750 0.82220 0.74060 -0.01100
C 	C 	0.82050 0.61390 0.78240 0.05500
C 	C 	0.66580 0.76410 0.82950 0.06200
C 	C 	0.72900 0.85510 0.78710 -0.09000
C 	C 	0.37450 0.98020 0.49900 0.08800
C 	C 	0.65580 0.69590 0.59210 0.09800
C 	C 	0.43310 0.76200 0.64100 0.15300
C 	C 	0.42200 0.84640 0.58160 -0.04500
C 	C 	0.53570 0.84360 0.53160 0.11200
C 	C 	0.42070 0.07770 0.30520 0.30800
C 	C 	0.38860 0.30010 0.26190 -0.08000
C 	C 	0.34750 0.17780 0.25940 -0.01600
C 	C 	0.32050 0.38610 0.21760 0.05600
C 	C 	0.16580 0.23590 0.17050 0.06300
C 	C 	0.22900 0.14490 0.21290 -0.08400
C 	C 	0.87450 0.48020 0.00100 0.06100
C 	C 	0.15580 0.19590 0.90790 0.10100
C 	C 	0.93310 0.26200 0.85900 0.14000
C 	C 	0.92200 0.34640 0.91840 -0.06300
C 	C 	0.03570 0.34360 0.96840 0.13200
C 	C 	0.92070 0.57770 0.19480 0.28500
C 	C 	0.88860 0.80010 0.23810 -0.08500
C 	C 	0.84750 0.67780 0.24060 -0.01400
C 	C 	0.82050 0.88610 0.28240 0.05400
C 	C 	0.66580 0.73590 0.32950 0.06100
C 	C 	0.72900 0.64490 0.28710 -0.08900
C 	C 	0.37450 0.51980 0.99900 0.08200
C 	C 	0.65580 0.80410 0.09210 0.09800
C 	C 	0.43310 0.73800 0.14100 0.15400
C 	C 	0.42200 0.65360 0.08160 -0.04500
C 	C 	0.53570 0.65640 0.03160 0.11300
C 	C 	0.42070 0.42230 0.80520 0.31100
C 	C 	0.38860 0.19990 0.76190 -0.08000
C 	C 	0.34750 0.32220 0.75940 -0.01700
C 	C 	0.32050 0.11390 0.71760 0.05500
C 	C 	0.16580 0.26410 0.67050 0.06300
C 	C 	0.22900 0.35510 0.71290 -0.08400
N 	N 	0.00610 0.07080 0.52160 -0.28700
N 	N 	0.16070 0.23080 0.46570 -0.16700
N 	N 	0.81760 0.06430 0.43940 -0.25700
N 	N 	0.05270 0.31210 0.35500 -0.13700
N 	N 	0.83010 0.24760 0.30640 -0.32400
N 	N 	0.71150 0.64530 0.82870 -0.27000
N 	N 	0.50610 0.92920 0.47840 -0.29400
N 	N 	0.66070 0.76920 0.53430 -0.16700
N 	N 	0.31760 0.93570 0.56060 -0.25900
N 	N 	0.55270 0.68790 0.64500 -0.14900
N 	N 	0.33010 0.75240 0.69360 -0.32800
N 	N 	0.21150 0.35470 0.17130 -0.26800
N 	N 	0.00610 0.42920 0.02160 -0.28400
N 	N 	0.16070 0.26920 0.96570 -0.16700
N 	N 	0.81760 0.43570 0.93940 -0.25700
N 	N 	0.05270 0.18790 0.85500 -0.13800
N 	N 	0.83010 0.25240 0.80640 -0.32500
N 	N 	0.71150 0.85470 0.32870 -0.27000
N 	N 	0.50610 0.57080 0.97840 -0.29400
N 	N 	0.66070 0.73080 0.03430 -0.16700
N 	N 	0.31760 0.56430 0.06060 -0.25900
N 	N 	0.55270 0.81210 0.14500 -0.14800
N 	N 	0.33010 0.74760 0.19360 -0.32800
N 	N 	0.21150 0.14530 0.67130 -0.26800
O 	O 	0.03860 0.88360 0.66108 -0.43800
O 	O 	0.87120 0.02740 0.69190 -0.32300
O 	O 	0.53860 0.11640 0.33892 -0.46500
O 	O 	0.37120 0.97260 0.30810 -0.32300
O 	O 	0.03860 0.61640 0.16108 -0.44300
O 	O 	0.87120 0.47260 0.19190 -0.32700
O 	O 	0.53860 0.38360 0.83892 -0.46500
O 	O 	0.37120 0.52740 0.80810 -0.32600
