data_crystal

_cell_length_a 18.30830
_cell_length_b 18.30830
_cell_length_c 18.30830
_cell_angle_alpha 60.00000
_cell_angle_beta  60.00000
_cell_angle_gamma 60.00000

_symmetry_space_group_name_	'P 1'
_symmetry_space_group_name_H-M	'P 1'

loop_
_symmetry_equiv_pos_as_xyz
  x,y,z

loop_
_atom_site_label
_atom_site_type_symbol
_atom_site_fract_x
_atom_site_fract_y
_atom_site_fract_z
_atom_site_charge
Zn	Zn	0.29342 0.29341 0.11976 1.21200
Zn	Zn	0.29342 0.29341 0.29341 1.21200
Zn	Zn	0.11977 0.29341 0.29341 1.21200
Zn	Zn	0.29342 0.11976 0.29341 1.21200
Zn	Zn	0.70658 0.70659 0.88024 1.21200
Zn	Zn	0.70658 0.70659 0.70659 1.21200
Zn	Zn	0.70658 0.88024 0.70659 1.21200
Zn	Zn	0.88023 0.70659 0.70659 1.21200
H 	H 	0.45480 0.45480 0.93480 0.04900
H 	H 	0.45480 0.45480 0.15560 0.04900
H 	H 	0.93480 0.15560 0.45480 0.04800
H 	H 	0.15560 0.93480 0.45480 0.04800
H 	H 	0.45480 0.93480 0.15560 0.04800
H 	H 	0.45480 0.15560 0.93480 0.04800
H 	H 	0.93480 0.45480 0.45480 0.04800
H 	H 	0.15560 0.45480 0.45480 0.04800
H 	H 	0.45480 0.15560 0.45480 0.04800
H 	H 	0.45480 0.93480 0.45480 0.04800
H 	H 	0.93480 0.45480 0.15560 0.04800
H 	H 	0.15560 0.45480 0.93480 0.04800
H 	H 	0.54520 0.54520 0.06520 0.04800
H 	H 	0.54520 0.54520 0.84440 0.04800
H 	H 	0.84440 0.06520 0.54520 0.04800
H 	H 	0.06520 0.84440 0.54520 0.04800
H 	H 	0.06520 0.54520 0.84440 0.04800
H 	H 	0.84440 0.54520 0.06520 0.04800
H 	H 	0.54520 0.06520 0.54520 0.04800
H 	H 	0.54520 0.84440 0.54520 0.04800
H 	H 	0.84440 0.54520 0.54520 0.04800
H 	H 	0.06520 0.54520 0.54520 0.04800
H 	H 	0.54520 0.06520 0.84440 0.04800
H 	H 	0.54520 0.84440 0.06520 0.04800
C 	C 	0.47317 0.47317 0.96131 -0.01500
C 	C 	0.47317 0.47317 0.09235 -0.01500
C 	C 	0.96131 0.09235 0.47317 -0.01600
C 	C 	0.09235 0.96131 0.47317 -0.01600
C 	C 	0.47317 0.96131 0.09235 -0.01600
C 	C 	0.47317 0.09235 0.96131 -0.01600
C 	C 	0.96131 0.47317 0.47317 -0.01500
C 	C 	0.09235 0.47317 0.47317 -0.01500
C 	C 	0.47317 0.09235 0.47317 -0.01500
C 	C 	0.47317 0.96131 0.47317 -0.01500
C 	C 	0.96131 0.47317 0.09235 -0.01600
C 	C 	0.09235 0.47317 0.96131 -0.01600
C 	C 	0.52683 0.52683 0.03869 -0.01500
C 	C 	0.52683 0.52683 0.90765 -0.01500
C 	C 	0.90765 0.03869 0.52683 -0.01600
C 	C 	0.03869 0.90765 0.52683 -0.01600
C 	C 	0.03869 0.52683 0.90765 -0.01600
C 	C 	0.90765 0.52683 0.03869 -0.01600
C 	C 	0.52683 0.03869 0.52683 -0.01500
C 	C 	0.52683 0.90765 0.52683 -0.01500
C 	C 	0.90765 0.52683 0.52683 -0.01500
C 	C 	0.03869 0.52683 0.52683 -0.01500
C 	C 	0.52683 0.03869 0.90765 -0.01600
C 	C 	0.52683 0.90765 0.03869 -0.01600
C 	C 	0.38843 0.38843 0.11157 0.38300
C 	C 	0.44641 0.44641 0.05359 -0.08600
C 	C 	0.11157 0.11157 0.38843 0.38200
C 	C 	0.05359 0.05359 0.44641 -0.08400
C 	C 	0.38843 0.11157 0.11157 0.38200
C 	C 	0.44641 0.05359 0.05359 -0.08400
C 	C 	0.11157 0.38843 0.38843 0.38300
C 	C 	0.05359 0.44641 0.44641 -0.08600
C 	C 	0.38843 0.11157 0.38843 0.38300
C 	C 	0.44641 0.05359 0.44641 -0.08600
C 	C 	0.11157 0.38843 0.11157 0.38200
C 	C 	0.05359 0.44641 0.05359 -0.08400
C 	C 	0.61157 0.61157 0.88843 0.38300
C 	C 	0.55359 0.55359 0.94641 -0.08600
C 	C 	0.88843 0.88843 0.61157 0.38200
C 	C 	0.94641 0.94641 0.55359 -0.08400
C 	C 	0.88843 0.61157 0.88843 0.38200
C 	C 	0.94641 0.55359 0.94641 -0.08400
C 	C 	0.61157 0.88843 0.61157 0.38300
C 	C 	0.55359 0.94641 0.55359 -0.08600
C 	C 	0.88843 0.61157 0.61157 0.38300
C 	C 	0.94641 0.55359 0.55359 -0.08600
C 	C 	0.61157 0.88843 0.88843 0.38200
C 	C 	0.55359 0.94641 0.94641 -0.08400
O 	O 	0.25000 0.25000 0.25000 -0.96000
O 	O 	0.75000 0.75000 0.75000 -0.96000
O 	O 	0.36629 0.36629 0.07237 -0.50600
O 	O 	0.36629 0.36629 0.19505 -0.50600
O 	O 	0.07237 0.19505 0.36629 -0.50500
O 	O 	0.19505 0.07237 0.36629 -0.50500
O 	O 	0.36629 0.07237 0.19505 -0.50500
O 	O 	0.36629 0.19505 0.07237 -0.50500
O 	O 	0.07237 0.36629 0.36629 -0.50500
O 	O 	0.19505 0.36629 0.36629 -0.50500
O 	O 	0.36629 0.19505 0.36629 -0.50600
O 	O 	0.36629 0.07237 0.36629 -0.50600
O 	O 	0.07237 0.36629 0.19505 -0.50500
O 	O 	0.19505 0.36629 0.07237 -0.50500
O 	O 	0.63371 0.63371 0.92763 -0.50600
O 	O 	0.63371 0.63371 0.80495 -0.50600
O 	O 	0.80495 0.92763 0.63371 -0.50500
O 	O 	0.92763 0.80495 0.63371 -0.50500
O 	O 	0.92763 0.63371 0.80495 -0.50500
O 	O 	0.80495 0.63371 0.92763 -0.50500
O 	O 	0.63371 0.92763 0.63371 -0.50600
O 	O 	0.63371 0.80495 0.63371 -0.50600
O 	O 	0.80495 0.63371 0.63371 -0.50500
O 	O 	0.92763 0.63371 0.63371 -0.50500
O 	O 	0.63371 0.92763 0.80495 -0.50500
O 	O 	0.63371 0.80495 0.92763 -0.50500
