data_crystal

_cell_length_a 18.22050
_cell_length_b 18.22050
_cell_length_c 18.22050
_cell_angle_alpha 60.00000
_cell_angle_beta  60.00000
_cell_angle_gamma 60.00000

_symmetry_space_group_name_	'P 1'
_symmetry_space_group_name_H-M	'P 1'

loop_
_symmetry_equiv_pos_as_xyz
  x,y,z

loop_
_atom_site_label
_atom_site_type_symbol
_atom_site_fract_x
_atom_site_fract_y
_atom_site_fract_z
_atom_site_charge
Zn	Zn	0.29361 0.29361 0.11917 1.21500
Zn	Zn	0.29361 0.29361 0.29361 1.21500
Zn	Zn	0.11917 0.29361 0.29361 1.21500
Zn	Zn	0.29361 0.11917 0.29361 1.21500
Zn	Zn	0.70639 0.70639 0.88083 1.21500
Zn	Zn	0.70639 0.70639 0.70639 1.21500
Zn	Zn	0.70639 0.88083 0.70639 1.21600
Zn	Zn	0.88083 0.70639 0.70639 1.21600
H 	H 	0.45580 0.45580 0.93700 0.04600
H 	H 	0.45580 0.45580 0.15140 0.04600
H 	H 	0.93700 0.15140 0.45580 0.04600
H 	H 	0.15140 0.93700 0.45580 0.04600
H 	H 	0.45580 0.93700 0.15140 0.04600
H 	H 	0.45580 0.15140 0.93700 0.04600
H 	H 	0.93700 0.45580 0.45580 0.04600
H 	H 	0.15140 0.45580 0.45580 0.04600
H 	H 	0.45580 0.15140 0.45580 0.04600
H 	H 	0.45580 0.93700 0.45580 0.04600
H 	H 	0.93700 0.45580 0.15140 0.04600
H 	H 	0.15140 0.45580 0.93700 0.04600
H 	H 	0.54420 0.54420 0.06300 0.04600
H 	H 	0.54420 0.54420 0.84860 0.04600
H 	H 	0.84860 0.06300 0.54420 0.04600
H 	H 	0.06300 0.84860 0.54420 0.04600
H 	H 	0.06300 0.54420 0.84860 0.04600
H 	H 	0.84860 0.54420 0.06300 0.04600
H 	H 	0.54420 0.06300 0.54420 0.04600
H 	H 	0.54420 0.84860 0.54420 0.04600
H 	H 	0.84860 0.54420 0.54420 0.04600
H 	H 	0.06300 0.54420 0.54420 0.04600
H 	H 	0.54420 0.06300 0.84860 0.04600
H 	H 	0.54420 0.84860 0.06300 0.04600
C 	C 	0.47350 0.47350 0.96390 -0.00800
C 	C 	0.47350 0.47350 0.08910 -0.00800
C 	C 	0.96390 0.08910 0.47350 -0.00900
C 	C 	0.08910 0.96390 0.47350 -0.00900
C 	C 	0.47350 0.96390 0.08910 -0.00900
C 	C 	0.47350 0.08910 0.96390 -0.00900
C 	C 	0.96390 0.47350 0.47350 -0.00800
C 	C 	0.08910 0.47350 0.47350 -0.00800
C 	C 	0.47350 0.08910 0.47350 -0.00800
C 	C 	0.47350 0.96390 0.47350 -0.00800
C 	C 	0.96390 0.47350 0.08910 -0.00900
C 	C 	0.08910 0.47350 0.96390 -0.00900
C 	C 	0.52650 0.52650 0.03610 -0.00800
C 	C 	0.52650 0.52650 0.91090 -0.00800
C 	C 	0.91090 0.03610 0.52650 -0.00900
C 	C 	0.03610 0.91090 0.52650 -0.00900
C 	C 	0.03610 0.52650 0.91090 -0.00900
C 	C 	0.91090 0.52650 0.03610 -0.00900
C 	C 	0.52650 0.03610 0.52650 -0.00800
C 	C 	0.52650 0.91090 0.52650 -0.00800
C 	C 	0.91090 0.52650 0.52650 -0.00800
C 	C 	0.03610 0.52650 0.52650 -0.00800
C 	C 	0.52650 0.03610 0.91090 -0.00900
C 	C 	0.52650 0.91090 0.03610 -0.00900
C 	C 	0.38850 0.38850 0.11150 0.42100
C 	C 	0.44660 0.44660 0.05340 -0.10400
C 	C 	0.11150 0.11150 0.38850 0.42000
C 	C 	0.05340 0.05340 0.44660 -0.10200
C 	C 	0.38850 0.11150 0.11150 0.42000
C 	C 	0.44660 0.05340 0.05340 -0.10200
C 	C 	0.11150 0.38850 0.38850 0.42100
C 	C 	0.05340 0.44660 0.44660 -0.10400
C 	C 	0.38850 0.11150 0.38850 0.42100
C 	C 	0.44660 0.05340 0.44660 -0.10400
C 	C 	0.11150 0.38850 0.11150 0.42000
C 	C 	0.05340 0.44660 0.05340 -0.10200
C 	C 	0.61150 0.61150 0.88850 0.42100
C 	C 	0.55340 0.55340 0.94660 -0.10400
C 	C 	0.88850 0.88850 0.61150 0.42000
C 	C 	0.94660 0.94660 0.55340 -0.10200
C 	C 	0.88850 0.61150 0.88850 0.42000
C 	C 	0.94660 0.55340 0.94660 -0.10200
C 	C 	0.61150 0.88850 0.61150 0.42100
C 	C 	0.55340 0.94660 0.55340 -0.10400
C 	C 	0.88850 0.61150 0.61150 0.42100
C 	C 	0.94660 0.55340 0.55340 -0.10400
C 	C 	0.61150 0.88850 0.88850 0.42000
C 	C 	0.55340 0.94660 0.94660 -0.10200
O 	O 	0.25000 0.25000 0.25000 -0.95200
O 	O 	0.75000 0.75000 0.75000 -0.95200
O 	O 	0.36609 0.36609 0.07351 -0.52200
O 	O 	0.36609 0.36609 0.19431 -0.52200
O 	O 	0.07351 0.19431 0.36609 -0.52200
O 	O 	0.19431 0.07351 0.36609 -0.52200
O 	O 	0.36609 0.07351 0.19431 -0.52200
O 	O 	0.36609 0.19431 0.07351 -0.52200
O 	O 	0.07351 0.36609 0.36609 -0.52200
O 	O 	0.19431 0.36609 0.36609 -0.52200
O 	O 	0.36609 0.19431 0.36609 -0.52200
O 	O 	0.36609 0.07351 0.36609 -0.52200
O 	O 	0.07351 0.36609 0.19431 -0.52200
O 	O 	0.19431 0.36609 0.07351 -0.52200
O 	O 	0.63391 0.63391 0.92649 -0.52200
O 	O 	0.63391 0.63391 0.80569 -0.52200
O 	O 	0.80569 0.92649 0.63391 -0.52200
O 	O 	0.92649 0.80569 0.63391 -0.52200
O 	O 	0.92649 0.63391 0.80569 -0.52200
O 	O 	0.80569 0.63391 0.92649 -0.52200
O 	O 	0.63391 0.92649 0.63391 -0.52200
O 	O 	0.63391 0.80569 0.63391 -0.52200
O 	O 	0.80569 0.63391 0.63391 -0.52200
O 	O 	0.92649 0.63391 0.63391 -0.52200
O 	O 	0.63391 0.92649 0.80569 -0.52200
O 	O 	0.63391 0.80569 0.92649 -0.52200
