data_crystal

_cell_length_a 9.90000
_cell_length_b 9.90000
_cell_length_c 23.80000
_cell_angle_alpha 90.00000
_cell_angle_beta  90.00000
_cell_angle_gamma 120.00000

_symmetry_space_group_name_	'P 1'
_symmetry_space_group_name_H-M	'P 1'

loop_
_symmetry_equiv_pos_as_xyz
  x,y,z

loop_
_atom_site_label
_atom_site_type_symbol
_atom_site_fract_x
_atom_site_fract_y
_atom_site_fract_z
_atom_site_charge
Fe	Fe	0.65470 0.13120 0.25000 1.29100
Fe	Fe	0.86880 0.52350 0.25000 1.29100
Fe	Fe	0.47650 0.34530 0.25000 1.29200
Fe	Fe	0.13120 0.65470 0.75000 1.29200
Fe	Fe	0.52350 0.86880 0.75000 1.29200
Fe	Fe	0.34530 0.47650 0.75000 1.29200
H 	H 	0.44930 0.20740 0.86860 0.05500
H 	H 	0.79260 0.24190 0.86860 0.05500
H 	H 	0.75810 0.55070 0.86860 0.05500
H 	H 	0.44930 0.20740 0.63140 0.05500
H 	H 	0.79260 0.24190 0.63140 0.05500
H 	H 	0.75810 0.55070 0.63140 0.05500
H 	H 	0.20740 0.44930 0.13140 0.05500
H 	H 	0.24190 0.79260 0.13140 0.05500
H 	H 	0.55070 0.75810 0.13140 0.05500
H 	H 	0.20740 0.44930 0.36860 0.05500
H 	H 	0.24190 0.79260 0.36860 0.05500
H 	H 	0.55070 0.75810 0.36860 0.05500
H 	H 	0.47850 0.30740 0.96510 0.04900
H 	H 	0.69260 0.17110 0.96510 0.04900
H 	H 	0.82890 0.52150 0.96510 0.04900
H 	H 	0.47850 0.30740 0.53490 0.04900
H 	H 	0.69260 0.17110 0.53490 0.04900
H 	H 	0.82890 0.52150 0.53490 0.04900
H 	H 	0.30740 0.47850 0.03490 0.04900
H 	H 	0.17110 0.69260 0.03490 0.04900
H 	H 	0.52150 0.82890 0.03490 0.04900
H 	H 	0.30740 0.47850 0.46510 0.04900
H 	H 	0.17110 0.69260 0.46510 0.04900
H 	H 	0.52150 0.82890 0.46510 0.04900
H 	H 	0.20100 0.73660 0.93140 0.04200
H 	H 	0.26340 0.46440 0.93140 0.04200
H 	H 	0.53560 0.79900 0.93140 0.04200
H 	H 	0.20100 0.73660 0.56860 0.04200
H 	H 	0.26340 0.46440 0.56860 0.04200
H 	H 	0.53560 0.79900 0.56860 0.04200
H 	H 	0.73660 0.20100 0.06860 0.04200
H 	H 	0.46440 0.26340 0.06860 0.04200
H 	H 	0.79900 0.53560 0.06860 0.04200
H 	H 	0.73660 0.20100 0.43140 0.04200
H 	H 	0.46440 0.26340 0.43140 0.04200
H 	H 	0.79900 0.53560 0.43140 0.04200
C 	C 	0.41850 0.09780 0.16670 0.36900
C 	C 	0.90220 0.32070 0.16670 0.36900
C 	C 	0.67930 0.58150 0.16670 0.36900
C 	C 	0.41850 0.09780 0.33330 0.36900
C 	C 	0.90220 0.32070 0.33330 0.36900
C 	C 	0.67930 0.58150 0.33330 0.36900
C 	C 	0.09780 0.41850 0.83330 0.36900
C 	C 	0.32070 0.90220 0.83330 0.36900
C 	C 	0.58150 0.67930 0.83330 0.36900
C 	C 	0.09780 0.41850 0.66670 0.36900
C 	C 	0.32070 0.90220 0.66670 0.36900
C 	C 	0.58150 0.67930 0.66670 0.36900
C 	C 	0.32080 0.96390 0.89180 -0.07600
C 	C 	0.03610 0.35690 0.89180 -0.07600
C 	C 	0.64310 0.67920 0.89180 -0.07500
C 	C 	0.32080 0.96390 0.60820 -0.07600
C 	C 	0.03610 0.35690 0.60820 -0.07600
C 	C 	0.64310 0.67920 0.60820 -0.07500
C 	C 	0.96390 0.32080 0.10820 -0.07600
C 	C 	0.35690 0.03610 0.10820 -0.07600
C 	C 	0.67920 0.64310 0.10820 -0.07500
C 	C 	0.96390 0.32080 0.39180 -0.07600
C 	C 	0.35690 0.03610 0.39180 -0.07600
C 	C 	0.67920 0.64310 0.39180 -0.07500
C 	C 	0.39970 0.12520 0.90300 0.01600
C 	C 	0.87480 0.27450 0.90300 0.01500
C 	C 	0.72550 0.60030 0.90300 0.01500
C 	C 	0.39970 0.12520 0.59700 0.01500
C 	C 	0.87480 0.27450 0.59700 0.01500
C 	C 	0.72550 0.60030 0.59700 0.01500
C 	C 	0.12520 0.39970 0.09700 0.01600
C 	C 	0.27450 0.87480 0.09700 0.01500
C 	C 	0.60030 0.72550 0.09700 0.01500
C 	C 	0.12520 0.39970 0.40300 0.01500
C 	C 	0.27450 0.87480 0.40300 0.01500
C 	C 	0.60030 0.72550 0.40300 0.01500
C 	C 	0.41780 0.18270 0.95850 -0.05700
C 	C 	0.81730 0.23510 0.95850 -0.05600
C 	C 	0.76490 0.58220 0.95850 -0.05700
C 	C 	0.41780 0.18270 0.54150 -0.05700
C 	C 	0.81730 0.23510 0.54150 -0.05700
C 	C 	0.76490 0.58220 0.54150 -0.05700
C 	C 	0.18270 0.41780 0.04150 -0.05700
C 	C 	0.23510 0.81730 0.04150 -0.05600
C 	C 	0.58220 0.76490 0.04150 -0.05700
C 	C 	0.18270 0.41780 0.45850 -0.05700
C 	C 	0.23510 0.81730 0.45850 -0.05700
C 	C 	0.58220 0.76490 0.45850 -0.05700
C 	C 	0.36520 0.08110 0.00510 0.01400
C 	C 	0.91890 0.28410 0.00510 0.01300
C 	C 	0.71590 0.63480 0.00510 0.01400
C 	C 	0.36520 0.08110 0.49490 0.01400
C 	C 	0.91890 0.28410 0.49490 0.01400
C 	C 	0.71590 0.63480 0.49490 0.01400
C 	C 	0.08110 0.36520 0.99490 0.01400
C 	C 	0.28410 0.91890 0.99490 0.01300
C 	C 	0.63480 0.71590 0.99490 0.01400
C 	C 	0.08110 0.36520 0.50510 0.01400
C 	C 	0.28410 0.91890 0.50510 0.01400
C 	C 	0.63480 0.71590 0.50510 0.01400
C 	C 	0.25960 0.86130 0.93860 -0.01400
C 	C 	0.13870 0.39830 0.93860 -0.01500
C 	C 	0.60170 0.74040 0.93860 -0.01500
C 	C 	0.25960 0.86130 0.56140 -0.01400
C 	C 	0.13870 0.39830 0.56140 -0.01400
C 	C 	0.60170 0.74040 0.56140 -0.01500
C 	C 	0.86130 0.25960 0.06140 -0.01400
C 	C 	0.39830 0.13870 0.06140 -0.01500
C 	C 	0.74040 0.60170 0.06140 -0.01500
C 	C 	0.86130 0.25960 0.43860 -0.01400
C 	C 	0.39830 0.13870 0.43860 -0.01400
C 	C 	0.74040 0.60170 0.43860 -0.01500
O 	O 	0.38980 0.19770 0.18930 -0.40500
O 	O 	0.80230 0.19210 0.18930 -0.40600
O 	O 	0.80790 0.61020 0.18930 -0.40500
O 	O 	0.38980 0.19770 0.31070 -0.40500
O 	O 	0.80230 0.19210 0.31070 -0.40600
O 	O 	0.80790 0.61020 0.31070 -0.40500
O 	O 	0.19770 0.38980 0.81070 -0.40500
O 	O 	0.19210 0.80230 0.81070 -0.40600
O 	O 	0.61020 0.80790 0.81070 -0.40500
O 	O 	0.19770 0.38980 0.68930 -0.40500
O 	O 	0.19210 0.80230 0.68930 -0.40600
O 	O 	0.61020 0.80790 0.68930 -0.40500
O 	O 	0.50460 0.05320 0.19060 -0.41100
O 	O 	0.94680 0.45140 0.19060 -0.41100
O 	O 	0.54860 0.49540 0.19060 -0.41100
O 	O 	0.50460 0.05320 0.30940 -0.41100
O 	O 	0.94680 0.45140 0.30940 -0.41100
O 	O 	0.54860 0.49540 0.30940 -0.41100
O 	O 	0.05320 0.50460 0.80940 -0.41100
O 	O 	0.45140 0.94680 0.80940 -0.41100
O 	O 	0.49540 0.54860 0.80940 -0.41100
O 	O 	0.05320 0.50460 0.69060 -0.41100
O 	O 	0.45140 0.94680 0.69060 -0.41100
O 	O 	0.49540 0.54860 0.69060 -0.41100
O 	O 	0.06630 0.71140 0.25000 -0.25000
O 	O 	0.28860 0.35490 0.25000 -0.25100
O 	O 	0.64510 0.93370 0.25000 -0.25000
O 	O 	0.71140 0.06630 0.75000 -0.25000
O 	O 	0.35490 0.28860 0.75000 -0.25100
O 	O 	0.93370 0.64510 0.75000 -0.25000
O 	O 	0.66670 0.33330 0.25000 -0.60800
O 	O 	0.33330 0.66670 0.75000 -0.60800
