data_crystal

_cell_length_a 18.74250
_cell_length_b 18.75290
_cell_length_c 18.75290
_cell_angle_alpha 120.00000
_cell_angle_beta  90.00000
_cell_angle_gamma 90.00000

_symmetry_space_group_name_	'P 1'
_symmetry_space_group_name_H-M	'P 1'

loop_
_symmetry_equiv_pos_as_xyz
  x,y,z

loop_
_atom_site_label
_atom_site_type_symbol
_atom_site_fract_x
_atom_site_fract_y
_atom_site_fract_z
_atom_site_charge
Fe	Fe	0.25000 0.72715 0.27316 1.29600
Fe	Fe	0.25000 0.72684 0.45399 1.29600
Fe	Fe	0.25000 0.54601 0.27285 1.29600
Fe	Fe	0.75000 0.27316 0.72715 1.29600
Fe	Fe	0.75000 0.45399 0.72684 1.29600
Fe	Fe	0.75000 0.27285 0.54601 1.29600
H 	H 	0.80943 0.49457 0.98854 0.03400
H 	H 	0.80943 0.01146 0.50603 0.03400
H 	H 	0.80943 0.49397 0.50543 0.03400
H 	H 	0.69057 0.49457 0.98854 0.03400
H 	H 	0.69057 0.01146 0.50603 0.03400
H 	H 	0.69057 0.49397 0.50543 0.03400
H 	H 	0.19057 0.98854 0.49457 0.03400
H 	H 	0.19057 0.50603 0.01146 0.03400
H 	H 	0.19057 0.50543 0.49397 0.03400
H 	H 	0.30943 0.98854 0.49457 0.03400
H 	H 	0.30943 0.50603 0.01146 0.03400
H 	H 	0.30943 0.50543 0.49397 0.03400
H 	H 	0.88688 0.55513 0.10977 0.05100
H 	H 	0.88688 0.89023 0.44537 0.05100
H 	H 	0.88688 0.55463 0.44487 0.05100
H 	H 	0.61312 0.55513 0.10977 0.05100
H 	H 	0.61312 0.89023 0.44537 0.05100
H 	H 	0.61312 0.55463 0.44487 0.05100
H 	H 	0.11312 0.10977 0.55513 0.05100
H 	H 	0.11312 0.44537 0.89023 0.05100
H 	H 	0.11312 0.44487 0.55463 0.05100
H 	H 	0.38688 0.10977 0.55513 0.05100
H 	H 	0.38688 0.44537 0.89023 0.05100
H 	H 	0.38688 0.44487 0.55463 0.05100
H 	H 	0.99197 0.41450 0.82847 0.04200
H 	H 	0.99197 0.17153 0.58603 0.04200
H 	H 	0.99197 0.41397 0.58550 0.04200
H 	H 	0.50803 0.41450 0.82847 0.04200
H 	H 	0.50803 0.17153 0.58603 0.04200
H 	H 	0.50803 0.41397 0.58550 0.04200
H 	H 	0.00803 0.82847 0.41450 0.04200
H 	H 	0.00803 0.58602 0.17153 0.04200
H 	H 	0.00803 0.58550 0.41397 0.04200
H 	H 	0.49197 0.82847 0.41450 0.04200
H 	H 	0.49197 0.58602 0.17153 0.04200
H 	H 	0.49197 0.58550 0.41397 0.04200
C 	C 	0.15530 0.58613 0.17189 0.37800
C 	C 	0.15530 0.82811 0.41424 0.37800
C 	C 	0.15530 0.58576 0.41387 0.37800
C 	C 	0.34470 0.58613 0.17189 0.37800
C 	C 	0.34470 0.82811 0.41424 0.37800
C 	C 	0.34470 0.58576 0.41387 0.37800
C 	C 	0.84470 0.17189 0.58613 0.37800
C 	C 	0.84470 0.41424 0.82811 0.37800
C 	C 	0.84470 0.41387 0.58576 0.37800
C 	C 	0.65530 0.17189 0.58613 0.37800
C 	C 	0.65530 0.41424 0.82811 0.37800
C 	C 	0.65530 0.41387 0.58576 0.37800
C 	C 	0.89473 0.45004 0.89954 -0.08500
C 	C 	0.89473 0.10046 0.55051 -0.08500
C 	C 	0.89473 0.44949 0.54995 -0.08500
C 	C 	0.60527 0.45004 0.89954 -0.08500
C 	C 	0.60527 0.10046 0.55051 -0.08500
C 	C 	0.60527 0.44949 0.54995 -0.08500
C 	C 	0.10527 0.89954 0.45004 -0.08500
C 	C 	0.10527 0.55051 0.10046 -0.08500
C 	C 	0.10527 0.54995 0.44949 -0.08500
C 	C 	0.39473 0.89954 0.45004 -0.08500
C 	C 	0.39473 0.55051 0.10046 -0.08500
C 	C 	0.39473 0.54995 0.44949 -0.08500
C 	C 	0.86642 0.49011 0.97962 0.02500
C 	C 	0.86642 0.02038 0.51049 0.02500
C 	C 	0.86642 0.48951 0.50989 0.02500
C 	C 	0.63358 0.49011 0.97962 0.02500
C 	C 	0.63358 0.02038 0.51049 0.02500
C 	C 	0.63358 0.48951 0.50989 0.02500
C 	C 	0.13358 0.97962 0.49011 0.02500
C 	C 	0.13358 0.51049 0.02038 0.02500
C 	C 	0.13358 0.50989 0.48951 0.02500
C 	C 	0.36642 0.97962 0.49011 0.02500
C 	C 	0.36642 0.51049 0.02038 0.02500
C 	C 	0.36642 0.50989 0.48951 0.02500
C 	C 	0.91085 0.52483 0.04905 -0.05500
C 	C 	0.91085 0.95095 0.47578 -0.05500
C 	C 	0.91085 0.52422 0.47517 -0.05400
C 	C 	0.58915 0.52483 0.04905 -0.05400
C 	C 	0.58915 0.95095 0.47578 -0.05400
C 	C 	0.58915 0.52422 0.47517 -0.05400
C 	C 	0.08915 0.04905 0.52483 -0.05500
C 	C 	0.08915 0.47578 0.95095 -0.05500
C 	C 	0.08915 0.47517 0.52422 -0.05400
C 	C 	0.41085 0.04905 0.52483 -0.05400
C 	C 	0.41085 0.47578 0.95095 -0.05400
C 	C 	0.41085 0.47517 0.52422 -0.05400
C 	C 	0.98525 0.52042 0.04019 0.01900
C 	C 	0.98525 0.95981 0.48024 0.01900
C 	C 	0.98525 0.51976 0.47958 0.01900
C 	C 	0.51475 0.52042 0.04019 0.01900
C 	C 	0.51475 0.95981 0.48024 0.01900
C 	C 	0.51475 0.51976 0.47958 0.01900
C 	C 	0.01474 0.04019 0.52042 0.01900
C 	C 	0.01474 0.48024 0.95981 0.01900
C 	C 	0.01475 0.47958 0.51976 0.01900
C 	C 	0.48526 0.04019 0.52042 0.01900
C 	C 	0.48526 0.48024 0.95981 0.01900
C 	C 	0.48526 0.47958 0.51976 0.01900
C 	C 	0.96938 0.44526 0.88992 -0.00100
C 	C 	0.96938 0.11008 0.55534 -0.00100
C 	C 	0.96938 0.44465 0.55474 -0.00100
C 	C 	0.53062 0.44526 0.88992 -0.00100
C 	C 	0.53062 0.11008 0.55534 -0.00100
C 	C 	0.53062 0.44465 0.55474 -0.00100
C 	C 	0.03062 0.88992 0.44526 -0.00100
C 	C 	0.03062 0.55534 0.11008 -0.00100
C 	C 	0.03062 0.55474 0.44465 -0.00100
C 	C 	0.46938 0.88992 0.44526 -0.00100
C 	C 	0.46938 0.55534 0.11008 -0.00100
C 	C 	0.46938 0.55474 0.44465 -0.00100
O 	O 	0.25000 0.66667 0.33333 -0.59500
O 	O 	0.75000 0.33333 0.66667 -0.59500
O 	O 	0.17768 0.53987 0.19868 -0.41700
O 	O 	0.17768 0.80132 0.34119 -0.41700
O 	O 	0.17768 0.65881 0.46014 -0.41700
O 	O 	0.32232 0.53987 0.19868 -0.41700
O 	O 	0.32232 0.80132 0.34119 -0.41700
O 	O 	0.32232 0.65881 0.46014 -0.41700
O 	O 	0.82232 0.19868 0.53986 -0.41700
O 	O 	0.82232 0.34119 0.80132 -0.41700
O 	O 	0.82232 0.46014 0.65882 -0.41700
O 	O 	0.67768 0.19868 0.53986 -0.41700
O 	O 	0.67768 0.34119 0.80132 -0.41700
O 	O 	0.67768 0.46014 0.65882 -0.41700
O 	O 	0.25000 0.78547 0.57147 -0.24700
O 	O 	0.25000 0.42853 0.21399 -0.24700
O 	O 	0.25000 0.78601 0.21453 -0.24700
O 	O 	0.75000 0.57147 0.78547 -0.24700
O 	O 	0.75000 0.21399 0.42853 -0.24700
O 	O 	0.75000 0.21453 0.78601 -0.24700
O 	O 	0.17766 0.65924 0.19891 -0.41700
O 	O 	0.17766 0.80109 0.46033 -0.41700
O 	O 	0.17766 0.53967 0.34076 -0.41700
O 	O 	0.32234 0.65924 0.19891 -0.41700
O 	O 	0.32234 0.80109 0.46033 -0.41700
O 	O 	0.32234 0.53967 0.34076 -0.41700
O 	O 	0.82234 0.19891 0.65924 -0.41700
O 	O 	0.82234 0.46033 0.80109 -0.41700
O 	O 	0.82234 0.34076 0.53967 -0.41700
O 	O 	0.67766 0.19891 0.65924 -0.41700
O 	O 	0.67766 0.46033 0.80109 -0.41700
O 	O 	0.67766 0.34076 0.53967 -0.41700
