data_crystal

_cell_length_a 12.61400
_cell_length_b 14.60400
_cell_length_c 22.85700
_cell_angle_alpha 90.00000
_cell_angle_beta  90.00000
_cell_angle_gamma 90.00000

_symmetry_space_group_name_	'P 1'
_symmetry_space_group_name_H-M	'P 1'

loop_
_symmetry_equiv_pos_as_xyz
  x,y,z

loop_
_atom_site_label
_atom_site_type_symbol
_atom_site_fract_x
_atom_site_fract_y
_atom_site_fract_z
_atom_site_charge
Zn	Zn	0.50000 0.76142 0.75000 1.18700
Zn	Zn	0.50000 0.73858 0.25000 1.18700
Zn	Zn	0.50000 0.23858 0.25000 1.18700
Zn	Zn	0.50000 0.26142 0.75000 1.18700
H 	H 	0.07300 0.86200 0.90400 0.05300
H 	H 	0.20100 0.86800 0.84020 0.06500
H 	H 	0.21000 0.15300 0.84520 0.05300
H 	H 	0.08000 0.14900 0.91890 0.05500
H 	H 	0.65200 0.79600 0.95090 0.09100
H 	H 	0.63800 0.79580 0.85640 -0.01400
H 	H 	0.35100 0.72400 0.85460 -0.00800
H 	H 	0.34100 0.70700 0.95180 0.08000
H 	H 	0.92700 0.86200 0.59600 0.05300
H 	H 	0.79900 0.86800 0.65980 0.06500
H 	H 	0.79000 0.15300 0.65480 0.05300
H 	H 	0.92000 0.14900 0.58110 0.05500
H 	H 	0.34800 0.79600 0.54910 0.09100
H 	H 	0.36200 0.79580 0.64360 -0.01400
H 	H 	0.64900 0.72400 0.64540 -0.00800
H 	H 	0.65900 0.70700 0.54820 0.08000
H 	H 	0.07300 0.63800 0.09600 0.05300
H 	H 	0.20100 0.63200 0.15980 0.06500
H 	H 	0.21000 0.34700 0.15480 0.05300
H 	H 	0.08000 0.35100 0.08110 0.05500
H 	H 	0.65200 0.70400 0.04910 0.09200
H 	H 	0.63800 0.70420 0.14360 -0.01400
H 	H 	0.35100 0.77600 0.14540 -0.00800
H 	H 	0.34100 0.79300 0.04820 0.08000
H 	H 	0.92700 0.63800 0.40400 0.05300
H 	H 	0.79900 0.63200 0.34020 0.06500
H 	H 	0.79000 0.34700 0.34520 0.05300
H 	H 	0.92000 0.35100 0.41890 0.05500
H 	H 	0.34800 0.70400 0.45090 0.09100
H 	H 	0.36200 0.70420 0.35640 -0.01400
H 	H 	0.64900 0.77600 0.35460 -0.00800
H 	H 	0.65900 0.79300 0.45180 0.08000
H 	H 	0.92700 0.13800 0.09600 0.05300
H 	H 	0.79900 0.13200 0.15980 0.06500
H 	H 	0.79000 0.84700 0.15480 0.05300
H 	H 	0.92000 0.85100 0.08110 0.05500
H 	H 	0.34800 0.20400 0.04910 0.09100
H 	H 	0.36200 0.20420 0.14360 -0.01400
H 	H 	0.64900 0.27600 0.14540 -0.00800
H 	H 	0.65900 0.29300 0.04820 0.08000
H 	H 	0.07300 0.13800 0.40400 0.05300
H 	H 	0.20100 0.13200 0.34020 0.06500
H 	H 	0.21000 0.84700 0.34520 0.05300
H 	H 	0.08000 0.85100 0.41890 0.05500
H 	H 	0.65200 0.20400 0.45090 0.09100
H 	H 	0.63800 0.20420 0.35640 -0.01400
H 	H 	0.35100 0.27600 0.35460 -0.00800
H 	H 	0.34100 0.29300 0.45180 0.08000
H 	H 	0.92700 0.36200 0.90400 0.05300
H 	H 	0.79900 0.36800 0.84020 0.06500
H 	H 	0.79000 0.65300 0.84520 0.05300
H 	H 	0.92000 0.64900 0.91890 0.05500
H 	H 	0.34800 0.29600 0.95090 0.09200
H 	H 	0.36200 0.29580 0.85640 -0.01400
H 	H 	0.64900 0.22400 0.85460 -0.00800
H 	H 	0.65900 0.20700 0.95180 0.08000
H 	H 	0.07300 0.36200 0.59600 0.05300
H 	H 	0.20100 0.36800 0.65980 0.06500
H 	H 	0.21000 0.65300 0.65480 0.05300
H 	H 	0.08000 0.64900 0.58110 0.05500
H 	H 	0.65200 0.29600 0.54910 0.09100
H 	H 	0.63800 0.29580 0.64360 -0.01400
H 	H 	0.35100 0.22400 0.64540 -0.00800
H 	H 	0.34100 0.20700 0.54820 0.08000
C 	C 	0.18590 0.08975 0.86053 -0.07100
C 	C 	0.22430 0.00828 0.83571 0.08400
C 	C 	0.34526 0.92990 0.76647 0.13500
C 	C 	0.34491 0.09176 0.76832 0.13700
C 	C 	0.30318 0.01014 0.78952 -0.15100
C 	C 	0.58530 0.77660 0.87586 0.08400
C 	C 	0.58880 0.77222 0.93659 -0.14000
C 	C 	0.49665 0.75230 0.96749 0.06000
C 	C 	0.18290 0.92568 0.85603 -0.09000
C 	C 	0.40460 0.73660 0.93543 -0.12000
C 	C 	0.97630 0.00210 0.96698 -0.06200
C 	C 	0.90860 0.08390 0.96286 0.09500
C 	C 	0.90840 0.92050 0.95947 0.09200
C 	C 	0.10570 0.08740 0.90219 -0.03800
C 	C 	0.06350 0.00432 0.92060 0.03100
C 	C 	0.40930 0.74040 0.87465 0.07600
C 	C 	0.10380 0.92350 0.89752 -0.03400
C 	C 	0.81410 0.08975 0.63947 -0.07100
C 	C 	0.77570 0.00828 0.66429 0.08400
C 	C 	0.65474 0.92990 0.73353 0.13500
C 	C 	0.65509 0.09176 0.73168 0.13700
C 	C 	0.69682 0.01014 0.71048 -0.15100
C 	C 	0.41470 0.77660 0.62414 0.08400
C 	C 	0.41120 0.77222 0.56341 -0.14000
C 	C 	0.50335 0.75230 0.53251 0.06000
C 	C 	0.81710 0.92568 0.64397 -0.09000
C 	C 	0.59540 0.73660 0.56457 -0.12000
C 	C 	0.02370 0.00210 0.53302 -0.06200
C 	C 	0.09140 0.08390 0.53714 0.09500
C 	C 	0.09160 0.92050 0.54053 0.09200
C 	C 	0.89430 0.08740 0.59781 -0.03800
C 	C 	0.93650 0.00432 0.57940 0.03100
C 	C 	0.59070 0.74040 0.62535 0.07600
C 	C 	0.89620 0.92350 0.60248 -0.03400
C 	C 	0.18590 0.41025 0.13947 -0.07100
C 	C 	0.22430 0.49172 0.16429 0.08400
C 	C 	0.34526 0.57010 0.23353 0.13500
C 	C 	0.34491 0.40824 0.23168 0.13700
C 	C 	0.30318 0.48986 0.21048 -0.15200
C 	C 	0.58530 0.72340 0.12414 0.08400
C 	C 	0.58880 0.72778 0.06341 -0.14000
C 	C 	0.49665 0.74770 0.03251 0.06000
C 	C 	0.18290 0.57432 0.14397 -0.09000
C 	C 	0.40460 0.76340 0.06457 -0.12000
C 	C 	0.97630 0.49790 0.03302 -0.06300
C 	C 	0.90860 0.41610 0.03714 0.09500
C 	C 	0.90840 0.57950 0.04053 0.09200
C 	C 	0.10570 0.41260 0.09781 -0.03800
C 	C 	0.06350 0.49568 0.07940 0.03100
C 	C 	0.40930 0.75960 0.12535 0.07600
C 	C 	0.10380 0.57650 0.10248 -0.03400
C 	C 	0.81410 0.41025 0.36053 -0.07100
C 	C 	0.77570 0.49172 0.33571 0.08400
C 	C 	0.65474 0.57010 0.26647 0.13500
C 	C 	0.65509 0.40824 0.26832 0.13700
C 	C 	0.69682 0.48986 0.28952 -0.15200
C 	C 	0.41470 0.72340 0.37586 0.08400
C 	C 	0.41120 0.72778 0.43659 -0.14000
C 	C 	0.50335 0.74770 0.46749 0.06000
C 	C 	0.81710 0.57432 0.35603 -0.09000
C 	C 	0.59540 0.76340 0.43543 -0.12000
C 	C 	0.02370 0.49790 0.46698 -0.06200
C 	C 	0.09140 0.41610 0.46286 0.09500
C 	C 	0.09160 0.57950 0.45947 0.09200
C 	C 	0.89430 0.41260 0.40219 -0.03800
C 	C 	0.93650 0.49568 0.42060 0.03100
C 	C 	0.59070 0.75960 0.37465 0.07600
C 	C 	0.89620 0.57650 0.39752 -0.03400
C 	C 	0.81410 0.91025 0.13947 -0.07100
C 	C 	0.77570 0.99172 0.16429 0.08400
C 	C 	0.65474 0.07010 0.23353 0.13500
C 	C 	0.65509 0.90824 0.23168 0.13700
C 	C 	0.69682 0.98986 0.21048 -0.15100
C 	C 	0.41470 0.22340 0.12414 0.08400
C 	C 	0.41120 0.22778 0.06341 -0.14000
C 	C 	0.50335 0.24770 0.03251 0.06000
C 	C 	0.81710 0.07432 0.14397 -0.09000
C 	C 	0.59540 0.26340 0.06457 -0.12000
C 	C 	0.02370 0.99790 0.03302 -0.06200
C 	C 	0.09140 0.91610 0.03714 0.09500
C 	C 	0.09160 0.07950 0.04053 0.09200
C 	C 	0.89430 0.91260 0.09781 -0.03800
C 	C 	0.93650 0.99568 0.07940 0.03100
C 	C 	0.59070 0.25960 0.12535 0.07600
C 	C 	0.89620 0.07650 0.10248 -0.03400
C 	C 	0.18590 0.91025 0.36053 -0.07100
C 	C 	0.22430 0.99172 0.33571 0.08400
C 	C 	0.34526 0.07010 0.26647 0.13500
C 	C 	0.34491 0.90824 0.26832 0.13700
C 	C 	0.30318 0.98986 0.28952 -0.15100
C 	C 	0.58530 0.22340 0.37586 0.08400
C 	C 	0.58880 0.22778 0.43659 -0.14000
C 	C 	0.49665 0.24770 0.46749 0.06000
C 	C 	0.18290 0.07432 0.35603 -0.09000
C 	C 	0.40460 0.26340 0.43543 -0.12000
C 	C 	0.97630 0.99790 0.46698 -0.06200
C 	C 	0.90860 0.91610 0.46286 0.09500
C 	C 	0.90840 0.07950 0.45947 0.09200
C 	C 	0.10570 0.91260 0.40219 -0.03800
C 	C 	0.06350 0.99568 0.42060 0.03100
C 	C 	0.40930 0.25960 0.37465 0.07600
C 	C 	0.10380 0.07650 0.39752 -0.03400
C 	C 	0.81410 0.58975 0.86053 -0.07100
C 	C 	0.77570 0.50828 0.83571 0.08400
C 	C 	0.65474 0.42990 0.76647 0.13500
C 	C 	0.65509 0.59176 0.76832 0.13700
C 	C 	0.69682 0.51014 0.78952 -0.15200
C 	C 	0.41470 0.27660 0.87586 0.08400
C 	C 	0.41120 0.27222 0.93659 -0.14000
C 	C 	0.50335 0.25230 0.96749 0.06000
C 	C 	0.81710 0.42568 0.85603 -0.09000
C 	C 	0.59540 0.23660 0.93543 -0.12000
C 	C 	0.02370 0.50210 0.96698 -0.06300
C 	C 	0.09140 0.58390 0.96286 0.09500
C 	C 	0.09160 0.42050 0.95947 0.09200
C 	C 	0.89430 0.58740 0.90219 -0.03800
C 	C 	0.93650 0.50432 0.92060 0.03100
C 	C 	0.59070 0.24040 0.87465 0.07600
C 	C 	0.89620 0.42350 0.89752 -0.03400
C 	C 	0.18590 0.58975 0.63947 -0.07100
C 	C 	0.22430 0.50828 0.66429 0.08400
C 	C 	0.34526 0.42990 0.73353 0.13500
C 	C 	0.34491 0.59176 0.73168 0.13700
C 	C 	0.30318 0.51014 0.71048 -0.15200
C 	C 	0.58530 0.27660 0.62414 0.08400
C 	C 	0.58880 0.27222 0.56341 -0.14000
C 	C 	0.49665 0.25230 0.53251 0.06000
C 	C 	0.18290 0.42568 0.64397 -0.09000
C 	C 	0.40460 0.23660 0.56457 -0.12000
C 	C 	0.97630 0.50210 0.53302 -0.06200
C 	C 	0.90860 0.58390 0.53714 0.09500
C 	C 	0.90840 0.42050 0.54053 0.09200
C 	C 	0.10570 0.58740 0.59781 -0.03800
C 	C 	0.06350 0.50432 0.57940 0.03100
C 	C 	0.40930 0.24040 0.62535 0.07600
C 	C 	0.10380 0.42350 0.60248 -0.03400
N 	N 	0.37970 0.86317 0.74825 -0.27500
N 	N 	0.37890 0.15911 0.75115 -0.27400
N 	N 	0.86120 0.14960 0.95840 -0.12800
N 	N 	0.49669 0.76004 0.84495 -0.25000
N 	N 	0.85940 0.85560 0.95243 -0.12900
N 	N 	0.62030 0.86317 0.75175 -0.27500
N 	N 	0.62110 0.15911 0.74885 -0.27400
N 	N 	0.13880 0.14960 0.54160 -0.12800
N 	N 	0.50331 0.76004 0.65505 -0.25000
N 	N 	0.14060 0.85560 0.54757 -0.12900
N 	N 	0.37970 0.63683 0.25175 -0.27500
N 	N 	0.37890 0.34089 0.24885 -0.27400
N 	N 	0.86120 0.35040 0.04160 -0.12800
N 	N 	0.49669 0.73996 0.15505 -0.25000
N 	N 	0.85940 0.64440 0.04757 -0.12900
N 	N 	0.62030 0.63683 0.24825 -0.27500
N 	N 	0.62110 0.34089 0.25115 -0.27400
N 	N 	0.13880 0.35040 0.45840 -0.12800
N 	N 	0.50331 0.73996 0.34495 -0.25000
N 	N 	0.14060 0.64440 0.45243 -0.12900
N 	N 	0.62030 0.13683 0.25175 -0.27500
N 	N 	0.62110 0.84089 0.24885 -0.27400
N 	N 	0.13880 0.85040 0.04160 -0.12800
N 	N 	0.50331 0.23996 0.15505 -0.25000
N 	N 	0.14060 0.14440 0.04757 -0.12900
N 	N 	0.37970 0.13683 0.24825 -0.27500
N 	N 	0.37890 0.84089 0.25115 -0.27400
N 	N 	0.86120 0.85040 0.45840 -0.12800
N 	N 	0.49669 0.23996 0.34495 -0.25000
N 	N 	0.85940 0.14440 0.45243 -0.12900
N 	N 	0.62030 0.36317 0.74825 -0.27500
N 	N 	0.62110 0.65911 0.75115 -0.27400
N 	N 	0.13880 0.64960 0.95840 -0.12800
N 	N 	0.50331 0.26004 0.84495 -0.25000
N 	N 	0.14060 0.35560 0.95243 -0.12900
N 	N 	0.37970 0.36317 0.75175 -0.27500
N 	N 	0.37890 0.65911 0.74885 -0.27400
N 	N 	0.86120 0.64960 0.54160 -0.12800
N 	N 	0.49669 0.26004 0.65505 -0.25000
N 	N 	0.85940 0.35560 0.54757 -0.12900
