data_crystal

_cell_length_a 11.43410
_cell_length_b 12.57910
_cell_length_c 14.77590
_cell_angle_alpha 90.00000
_cell_angle_beta  90.00000
_cell_angle_gamma 90.00000

_symmetry_space_group_name_	'P 1'
_symmetry_space_group_name_H-M	'P 1'

loop_
_symmetry_equiv_pos_as_xyz
  x,y,z

loop_
_atom_site_label
_atom_site_type_symbol
_atom_site_fract_x
_atom_site_fract_y
_atom_site_fract_z
_atom_site_charge
Zn	Zn	0.50000 0.50000 0.25000 1.18800
Zn	Zn	0.50000 0.50000 0.75000 1.18600
H 	H 	0.69670 0.21790 0.13610 0.06400
H 	H 	0.82860 0.07910 0.13590 0.06200
H 	H 	0.91060 0.34440 0.28040 0.09000
H 	H 	0.70930 0.34960 0.28080 -0.00900
H 	H 	0.30330 0.78210 0.13610 0.06400
H 	H 	0.17140 0.92090 0.13590 0.06200
H 	H 	0.08940 0.65560 0.28040 0.09000
H 	H 	0.29070 0.65040 0.28080 -0.00900
H 	H 	0.30330 0.21790 0.36390 0.06400
H 	H 	0.17140 0.07910 0.36410 0.06200
H 	H 	0.08940 0.34440 0.21960 0.09000
H 	H 	0.29070 0.34960 0.21920 -0.00800
H 	H 	0.69670 0.78210 0.36390 0.06400
H 	H 	0.82860 0.92090 0.36410 0.06200
H 	H 	0.91060 0.65560 0.21960 0.09000
H 	H 	0.70930 0.65040 0.21920 -0.00800
H 	H 	0.30330 0.78210 0.86390 0.06500
H 	H 	0.17140 0.92090 0.86410 0.06400
H 	H 	0.08940 0.65560 0.71960 0.08900
H 	H 	0.29070 0.65040 0.71920 -0.00900
H 	H 	0.69670 0.21790 0.86390 0.06500
H 	H 	0.82860 0.07910 0.86410 0.06400
H 	H 	0.91060 0.34440 0.71960 0.08900
H 	H 	0.70930 0.34960 0.71920 -0.00900
H 	H 	0.69670 0.78210 0.63610 0.06400
H 	H 	0.82860 0.92090 0.63590 0.06100
H 	H 	0.91060 0.65560 0.78040 0.08900
H 	H 	0.70930 0.65040 0.78080 -0.00900
H 	H 	0.30330 0.21790 0.63610 0.06400
H 	H 	0.17140 0.07910 0.63590 0.06100
H 	H 	0.08940 0.34440 0.78040 0.08900
H 	H 	0.29070 0.34960 0.78080 -0.00900
C 	C 	0.87186 0.40778 0.26813 -0.13800
C 	C 	0.75022 0.41168 0.26799 0.08100
C 	C 	0.53842 0.34899 0.08035 0.13300
C 	C 	0.72070 0.18890 0.08133 -0.08300
C 	C 	0.80140 0.10660 0.08143 -0.05200
C 	C 	0.92140 0.90930 0.08100 0.09500
C 	C 	0.12814 0.59222 0.26813 -0.13800
C 	C 	0.24978 0.58832 0.26799 0.08100
C 	C 	0.46158 0.65101 0.08035 0.13300
C 	C 	0.27930 0.81110 0.08133 -0.08300
C 	C 	0.19860 0.89340 0.08143 -0.05200
C 	C 	0.07860 0.09070 0.08100 0.09500
C 	C 	0.12814 0.40778 0.23187 -0.13700
C 	C 	0.24978 0.41168 0.23201 0.08100
C 	C 	0.46158 0.34899 0.41965 0.13400
C 	C 	0.27930 0.18890 0.41867 -0.08400
C 	C 	0.19860 0.10660 0.41857 -0.05000
C 	C 	0.07860 0.90930 0.41900 0.09400
C 	C 	0.87186 0.59222 0.23187 -0.13700
C 	C 	0.75022 0.58832 0.23201 0.08100
C 	C 	0.53842 0.65101 0.41965 0.13400
C 	C 	0.72070 0.81110 0.41867 -0.08400
C 	C 	0.80140 0.89340 0.41857 -0.05000
C 	C 	0.92140 0.09070 0.41900 0.09400
C 	C 	0.12814 0.59222 0.73187 -0.13800
C 	C 	0.24978 0.58832 0.73201 0.08000
C 	C 	0.46158 0.65101 0.91965 0.12400
C 	C 	0.27930 0.81110 0.91867 -0.08900
C 	C 	0.19860 0.89340 0.91857 -0.05800
C 	C 	0.07860 0.09070 0.91900 0.08700
C 	C 	0.87186 0.40778 0.73187 -0.13800
C 	C 	0.75022 0.41168 0.73201 0.08000
C 	C 	0.53842 0.34899 0.91965 0.12400
C 	C 	0.72070 0.18890 0.91867 -0.08900
C 	C 	0.80140 0.10660 0.91857 -0.05800
C 	C 	0.92140 0.90930 0.91900 0.08700
C 	C 	0.87186 0.59222 0.76813 -0.13800
C 	C 	0.75022 0.58832 0.76799 0.08000
C 	C 	0.53842 0.65101 0.58035 0.13400
C 	C 	0.72070 0.81110 0.58133 -0.08400
C 	C 	0.80140 0.89340 0.58143 -0.05000
C 	C 	0.92140 0.09070 0.58100 0.09400
C 	C 	0.12814 0.40778 0.76813 -0.13800
C 	C 	0.24978 0.41168 0.76799 0.08000
C 	C 	0.46158 0.34899 0.58035 0.13400
C 	C 	0.27930 0.18890 0.58133 -0.08400
C 	C 	0.19860 0.10660 0.58143 -0.05000
C 	C 	0.07860 0.90930 0.58100 0.09400
C 	C 	0.93510 0.50000 0.25000 0.06200
C 	C 	0.06490 0.50000 0.25000 0.06200
C 	C 	0.06490 0.50000 0.75000 0.06100
C 	C 	0.93510 0.50000 0.75000 0.06100
C 	C 	0.58520 0.31060 -0.00000 -0.14200
C 	C 	0.67640 0.23000 -0.00000 0.09000
C 	C 	0.84170 0.06480 -0.00000 0.04900
C 	C 	0.93400 0.97640 -0.00000 -0.06200
C 	C 	0.41480 0.68940 -0.00000 -0.14200
C 	C 	0.32360 0.77000 -0.00000 0.09000
C 	C 	0.15830 0.93520 -0.00000 0.04900
C 	C 	0.06600 0.02360 -0.00000 -0.06200
C 	C 	0.41480 0.31060 0.50000 -0.15000
C 	C 	0.32360 0.23000 0.50000 0.08500
C 	C 	0.15830 0.06480 0.50000 0.04100
C 	C 	0.06600 0.97640 0.50000 -0.06600
C 	C 	0.58520 0.68940 0.50000 -0.15000
C 	C 	0.67640 0.77000 0.50000 0.08500
C 	C 	0.84170 0.93520 0.50000 0.04100
C 	C 	0.93400 0.02360 0.50000 -0.06600
N 	N 	0.50101 0.37981 0.14765 -0.27100
N 	N 	0.91080 0.85920 0.14470 -0.12800
N 	N 	0.49899 0.62019 0.14765 -0.27100
N 	N 	0.08920 0.14080 0.14470 -0.12800
N 	N 	0.49899 0.37981 0.35235 -0.27200
N 	N 	0.08920 0.85920 0.35530 -0.12900
N 	N 	0.50101 0.62019 0.35235 -0.27200
N 	N 	0.91080 0.14080 0.35530 -0.12900
N 	N 	0.49899 0.62019 0.85235 -0.27000
N 	N 	0.08920 0.14080 0.85530 -0.12800
N 	N 	0.50101 0.37981 0.85235 -0.27000
N 	N 	0.91080 0.85920 0.85530 -0.12800
N 	N 	0.50101 0.62019 0.64765 -0.27200
N 	N 	0.91080 0.14080 0.64470 -0.12900
N 	N 	0.49899 0.37981 0.64765 -0.27200
N 	N 	0.08920 0.85920 0.64470 -0.12900
N 	N 	0.68970 0.50000 0.25000 -0.25000
N 	N 	0.31030 0.50000 0.25000 -0.25000
N 	N 	0.31030 0.50000 0.75000 -0.25100
N 	N 	0.68970 0.50000 0.75000 -0.25100
