data_crystal

_cell_length_a 6.58980
_cell_length_b 7.48140
_cell_length_c 10.56290
_cell_angle_alpha 110.74000
_cell_angle_beta  104.68800
_cell_angle_gamma 90.00000

_symmetry_space_group_name_	'P 1'
_symmetry_space_group_name_H-M	'P 1'

loop_
_symmetry_equiv_pos_as_xyz
  x,y,z

loop_
_atom_site_label
_atom_site_type_symbol
_atom_site_fract_x
_atom_site_fract_y
_atom_site_fract_z
_atom_site_charge
Al	Al	-0.00000 0.00000 -0.00000 2.31300
Al	Al	0.50000 0.00000 -0.00000 2.31900
H 	H 	0.38043 0.95562 0.59200 0.01200
H 	H 	0.23234 0.89105 0.33016 0.12400
H 	H 	0.62158 0.07806 0.40275 0.06800
H 	H 	0.88043 0.63638 0.59200 0.10000
H 	H 	0.73234 0.43910 0.33015 -0.00300
H 	H 	0.12158 0.32469 0.40275 -0.04200
H 	H 	0.57225 0.11514 0.64456 0.02200
H 	H 	0.81721 0.25173 0.79337 0.21000
H 	H 	0.07847 0.46269 0.64103 0.05700
H 	H 	0.31099 0.60837 0.79691 0.16600
H 	H 	0.15294 0.24212 0.97402 0.32800
H 	H 	0.64618 0.80447 0.97787 0.16100
C 	C 	0.21100 0.98300 0.54980 0.63400
C 	C 	0.87300 0.08650 0.59000 0.48100
C 	C 	0.08300 0.05270 0.64240 -0.86800
C 	C 	0.12900 0.94720 0.40480 -0.36900
C 	C 	0.79100 0.05070 0.44500 -0.59400
C 	C 	0.91900 0.98100 0.35240 0.46400
C 	C 	0.16500 0.08860 0.78760 0.77000
C 	C 	0.83700 0.94510 0.20720 0.46000
C 	C 	0.71100 0.56680 0.54980 0.02000
C 	C 	0.37300 0.50350 0.59000 0.09500
C 	C 	0.58300 0.58970 0.64240 -0.14300
C 	C 	0.62900 0.45760 0.40480 0.06400
C 	C 	0.29100 0.39430 0.44500 0.00800
C 	C 	0.41900 0.37140 0.35240 -0.30300
C 	C 	0.66500 0.69900 0.78760 0.52400
C 	C 	0.33700 0.26210 0.20720 0.69700
N 	N 	0.74500 0.15610 0.68260 -0.25000
N 	N 	0.24500 0.52650 0.68260 -0.17700
O 	O 	0.05300 0.14960 0.86880 -0.76300
O 	O 	0.35000 0.05890 0.83360 -0.73700
O 	O 	0.65200 0.97480 0.16120 -0.80000
O 	O 	0.94900 0.88410 0.12600 -0.81400
O 	O 	0.71800 0.11190 0.99280 -0.60200
O 	O 	0.55300 0.71920 0.86880 -0.46200
O 	O 	0.85000 0.77470 0.83360 -0.42600
O 	O 	0.15200 0.18640 0.16120 -1.20700
O 	O 	0.44900 0.24190 0.12600 -1.11200
O 	O 	0.21800 0.88090 0.99280 -0.42500
