data_crystal

_cell_length_a 8.98100
_cell_length_b 12.24710
_cell_length_c 15.88880
_cell_angle_alpha 76.82700
_cell_angle_beta  75.95300
_cell_angle_gamma 79.38400

_symmetry_space_group_name_	'P 1'
_symmetry_space_group_name_H-M	'P 1'

loop_
_symmetry_equiv_pos_as_xyz
  x,y,z

loop_
_atom_site_label
_atom_site_type_symbol
_atom_site_fract_x
_atom_site_fract_y
_atom_site_fract_z
_atom_site_charge
Zn	Zn	0.34011 0.35332 0.44038 1.21900
Zn	Zn	0.65989 0.64668 0.55962 1.21800
Zn	Zn	-0.00000 0.50000 0.50000 1.23300
H 	H 	0.72730 0.97580 0.14400 0.06000
H 	H 	0.62790 0.95860 0.07770 0.03500
H 	H 	0.10020 0.11240 0.17170 0.13700
H 	H 	0.74020 0.07910 0.94930 0.04900
H 	H 	0.86750 0.07490 0.00600 0.06100
H 	H 	0.02910 0.43550 0.70120 0.01800
H 	H 	0.21440 0.18960 0.25710 -0.02500
H 	H 	0.57110 0.62940 0.26670 -0.00900
H 	H 	0.65320 0.79870 0.18350 0.12100
H 	H 	0.50080 0.26350 0.01200 0.17900
H 	H 	0.46510 0.14360 0.00380 0.17300
H 	H 	0.40730 0.18590 0.09600 0.18100
H 	H 	0.60370 0.19570 0.18330 0.05700
H 	H 	0.68110 0.27830 0.09620 0.05700
H 	H 	0.70290 0.32370 0.22810 0.13500
H 	H 	0.25160 0.97010 0.29520 0.12500
H 	H 	0.16380 0.79970 0.36870 -0.01200
H 	H 	0.66700 0.99100 0.38530 0.05800
H 	H 	0.94110 0.19690 0.47590 0.04800
H 	H 	0.67660 0.25800 0.48940 -0.00900
H 	H 	0.96510 0.07020 0.85770 0.09500
H 	H 	0.12530 0.09770 0.71840 0.02500
H 	H 	0.44100 0.13380 0.36040 0.03500
H 	H 	0.81380 0.39800 0.31730 -0.02700
H 	H 	0.82620 0.89100 0.48240 0.04700
H 	H 	0.86670 0.40900 0.84110 0.09600
H 	H 	0.27270 0.02420 0.85600 0.05700
H 	H 	0.37210 0.04140 0.92230 0.03800
H 	H 	0.89980 0.88760 0.82830 0.09000
H 	H 	0.25980 0.92090 0.05070 0.03900
H 	H 	0.13250 0.92510 0.99400 0.04500
H 	H 	0.97090 0.56450 0.29880 -0.02600
H 	H 	0.78560 0.81040 0.74290 0.01900
H 	H 	0.42890 0.37060 0.73330 -0.01000
H 	H 	0.34680 0.20130 0.81650 0.11600
H 	H 	0.49920 0.73650 0.98800 0.18400
H 	H 	0.53490 0.85640 0.99620 0.17700
H 	H 	0.59270 0.81410 0.90400 0.18500
H 	H 	0.39630 0.80430 0.81670 0.06200
H 	H 	0.31890 0.72170 0.90380 0.06100
H 	H 	0.29710 0.67630 0.77190 0.09000
H 	H 	0.74840 0.02990 0.70480 0.12900
H 	H 	0.83620 0.20030 0.63130 0.00100
H 	H 	0.33300 0.00900 0.61470 0.05700
H 	H 	0.05890 0.80310 0.52410 0.08700
H 	H 	0.32340 0.74200 0.51060 -0.01400
H 	H 	0.03490 0.92980 0.14230 0.14400
H 	H 	0.87470 0.90230 0.28160 -0.03100
H 	H 	0.55900 0.86620 0.63960 0.03300
H 	H 	0.18620 0.60200 0.68270 0.02000
H 	H 	0.17380 0.10900 0.51760 0.09400
H 	H 	0.13330 0.59100 0.15890 0.15000
C 	C 	0.64420 0.12810 0.07000 0.15400
C 	C 	0.63380 0.00640 0.11900 -0.04800
C 	C 	0.90090 0.23790 0.86220 0.20300
C 	C 	0.04210 0.17040 0.20170 -0.32600
C 	C 	0.77200 0.11890 0.98840 -0.05900
C 	C 	0.01530 0.36100 0.73290 0.04200
C 	C 	0.88930 0.20850 0.19450 0.33100
C 	C 	0.02510 0.30200 0.29650 -0.26800
C 	C 	0.11000 0.21620 0.25220 0.19200
C 	C 	0.50470 0.69870 0.27130 0.15600
C 	C 	0.55470 0.79920 0.22270 -0.25800
C 	C 	0.46010 0.90030 0.23180 0.26500
C 	C 	0.19290 0.28460 0.60550 0.37800
C 	C 	0.49030 0.18550 0.04300 -0.50200
C 	C 	0.68220 0.19840 0.12740 -0.04900
C 	C 	0.30440 0.58970 0.37940 0.42800
C 	C 	0.80570 0.29510 0.23540 -0.30800
C 	C 	0.31560 0.90050 0.28780 -0.25500
C 	C 	0.26520 0.79960 0.33270 0.15700
C 	C 	0.36020 0.69740 0.32640 -0.21600
C 	C 	0.64150 0.06220 0.40320 0.00900
C 	C 	0.96510 0.11680 0.48560 0.00900
C 	C 	0.86450 0.05280 0.47530 0.04600
C 	C 	0.64550 0.20930 0.46020 0.10600
C 	C 	0.09210 0.34470 0.35790 0.43700
C 	C 	0.97780 0.14470 0.82570 -0.15500
C 	C 	0.07190 0.16110 0.74350 0.04500
C 	C 	0.09010 0.27020 0.69610 -0.14500
C 	C 	0.51800 0.14060 0.38990 0.00800
C 	C 	0.87270 0.34010 0.28740 0.22200
C 	C 	0.89730 0.93510 0.48960 0.00800
C 	C 	0.91950 0.34540 0.81610 -0.15000
C 	C 	0.35580 0.87190 0.93000 0.15700
C 	C 	0.36620 0.99360 0.88100 -0.05800
C 	C 	0.09910 0.76210 0.13780 0.32400
C 	C 	0.95790 0.82960 0.79830 -0.14900
C 	C 	0.22800 0.88110 0.01160 -0.04600
C 	C 	0.98470 0.63900 0.26710 0.24000
C 	C 	0.11070 0.79150 0.80550 0.18400
C 	C 	0.97490 0.69800 0.70350 -0.11500
C 	C 	0.89000 0.78380 0.74780 0.06700
C 	C 	0.49530 0.30130 0.72870 0.15100
C 	C 	0.44530 0.20080 0.77730 -0.25400
C 	C 	0.53990 0.09970 0.76820 0.26500
C 	C 	0.80710 0.71540 0.39450 0.42800
C 	C 	0.50970 0.81450 0.95700 -0.50800
C 	C 	0.31780 0.80160 0.87260 -0.06200
C 	C 	0.69560 0.41030 0.62060 0.42400
C 	C 	0.19430 0.70490 0.76460 -0.17800
C 	C 	0.68440 0.09950 0.71220 -0.25000
C 	C 	0.73480 0.20040 0.66730 0.15300
C 	C 	0.63980 0.30260 0.67360 -0.20800
C 	C 	0.35850 0.93780 0.59680 0.00300
C 	C 	0.03490 0.88320 0.51440 -0.16300
C 	C 	0.13550 0.94720 0.52470 0.13800
C 	C 	0.35450 0.79070 0.53980 0.10900
C 	C 	0.90790 0.65530 0.64210 0.38900
C 	C 	0.02220 0.85530 0.17430 -0.35500
C 	C 	0.92810 0.83890 0.25650 0.24500
C 	C 	0.90990 0.72980 0.30390 -0.26500
C 	C 	0.48200 0.85940 0.61010 0.01100
C 	C 	0.12730 0.65990 0.71260 0.04600
C 	C 	0.10270 0.06490 0.51040 -0.15600
C 	C 	0.08050 0.65460 0.18390 -0.34600
N 	N 	0.72280 0.10570 0.44770 -0.12400
N 	N 	0.52180 0.23190 0.42590 -0.25500
N 	N 	0.27720 0.89430 0.55230 -0.14100
N 	N 	0.47820 0.76810 0.57410 -0.25600
O 	O 	0.49880 0.00490 0.18820 -0.23600
O 	O 	0.83310 0.15360 0.14570 -0.24200
O 	O 	0.23280 0.30830 0.36130 -0.48700
O 	O 	0.40000 0.49920 0.37780 -0.50000
O 	O 	0.00410 0.41060 0.40420 -0.48100
O 	O 	0.18270 0.37700 0.55100 -0.57400
O 	O 	0.28430 0.20280 0.58200 -0.35800
O 	O 	0.80090 0.22990 0.94280 -0.21300
O 	O 	0.16880 0.59550 0.42370 -0.47800
O 	O 	0.50120 0.99510 0.81180 -0.23700
O 	O 	0.16690 0.84640 0.85430 -0.22000
O 	O 	0.76720 0.69170 0.63870 -0.47000
O 	O 	0.60000 0.50080 0.62220 -0.49800
O 	O 	0.99590 0.58940 0.59580 -0.43800
O 	O 	0.81730 0.62300 0.44900 -0.57400
O 	O 	0.71570 0.79720 0.41800 -0.36700
O 	O 	0.19910 0.77010 0.05720 -0.25000
O 	O 	0.83120 0.40450 0.57630 -0.45600
