data_crystal

_cell_length_a 10.65490
_cell_length_b 14.56380
_cell_length_c 16.04350
_cell_angle_alpha 99.78300
_cell_angle_beta  102.39600
_cell_angle_gamma 101.83400

_symmetry_space_group_name_	'P 1'
_symmetry_space_group_name_H-M	'P 1'

loop_
_symmetry_equiv_pos_as_xyz
  x,y,z

loop_
_atom_site_label
_atom_site_type_symbol
_atom_site_fract_x
_atom_site_fract_y
_atom_site_fract_z
_atom_site_charge
Zn	Zn	0.22430 0.37510 0.47519 1.22300
Zn	Zn	0.77570 0.62490 0.52481 1.22600
Zn	Zn	-0.00000 0.50000 0.50000 1.22700
H 	H 	0.09900 0.64190 0.29880 -0.06100
H 	H 	0.42780 0.55030 0.33700 -0.02600
H 	H 	0.08380 0.51240 0.70880 -0.02600
H 	H 	0.11000 0.60590 0.84780 0.11800
H 	H 	0.50980 0.66630 0.88540 0.12700
H 	H 	0.47830 0.57970 0.74310 -0.00600
H 	H 	0.41050 0.08420 0.59500 0.06200
H 	H 	0.54790 0.06360 0.38620 0.06800
H 	H 	0.62880 0.25720 0.46050 0.04100
H 	H 	0.27130 0.17120 0.49350 -0.02600
H 	H 	0.51540 0.38510 0.45290 0.03800
H 	H 	0.51110 0.64920 0.25460 0.17500
H 	H 	0.77650 0.98550 0.23480 0.16900
H 	H 	0.53500 0.16020 0.22540 0.15600
H 	H 	0.94150 0.10610 0.33220 -0.03000
H 	H 	0.70060 0.28190 0.32140 -0.04300
H 	H 	0.60550 0.92740 0.08620 0.03200
H 	H 	0.59060 0.87440 0.16250 0.05300
H 	H 	0.24960 0.76670 0.09170 0.04900
H 	H 	0.32170 0.85810 0.16770 0.05100
H 	H 	0.17800 0.73470 0.21050 0.15200
H 	H 	0.49910 0.73320 0.03580 0.06300
H 	H 	0.49120 0.79620 0.96490 0.04400
H 	H 	0.33250 0.96530 0.05210 0.20500
H 	H 	0.36770 0.91940 0.96710 0.20400
H 	H 	0.24020 0.86840 0.99130 0.19800
H 	H 	0.90100 0.35810 0.70120 -0.02300
H 	H 	0.57220 0.44970 0.66300 -0.01800
H 	H 	0.91620 0.48760 0.29120 0.01500
H 	H 	0.89000 0.39410 0.15220 0.13800
H 	H 	0.49020 0.33370 0.11460 0.11600
H 	H 	0.52170 0.42030 0.25690 -0.00600
H 	H 	0.58950 0.91580 0.40500 0.07200
H 	H 	0.45210 0.93640 0.61380 0.07400
H 	H 	0.37120 0.74280 0.53950 0.03700
H 	H 	0.72870 0.82880 0.50650 -0.01200
H 	H 	0.48460 0.61490 0.54710 0.03900
H 	H 	0.48890 0.35080 0.74540 0.16300
H 	H 	0.22350 0.01450 0.76520 0.14800
H 	H 	0.46500 0.83980 0.77460 0.15100
H 	H 	0.05850 0.89390 0.66780 -0.05100
H 	H 	0.29940 0.71810 0.67860 -0.02700
H 	H 	0.39450 0.07260 0.91380 0.03000
H 	H 	0.40940 0.12560 0.83750 0.05100
H 	H 	0.75040 0.23330 0.90830 0.06900
H 	H 	0.67830 0.14190 0.83230 0.06700
H 	H 	0.82200 0.26530 0.78950 0.16200
H 	H 	0.50090 0.26680 0.96420 0.06100
H 	H 	0.50880 0.20380 0.03510 0.04100
H 	H 	0.66750 0.03470 0.94790 0.22700
H 	H 	0.63230 0.08060 0.03290 0.22000
H 	H 	0.75980 0.13160 0.00870 0.22500
C 	C 	0.20650 0.52590 0.38740 0.47300
C 	C 	0.25550 0.58740 0.32800 -0.29100
C 	C 	0.18220 0.64220 0.28930 0.25700
C 	C 	0.37750 0.58890 0.31260 0.25000
C 	C 	0.26120 0.48010 0.62520 0.41100
C 	C 	0.27800 0.53570 0.71320 -0.22400
C 	C 	0.16830 0.54440 0.74370 0.15600
C 	C 	0.18350 0.60090 0.82660 -0.26100
C 	C 	0.31210 0.65000 0.87700 0.26400
C 	C 	0.42490 0.63860 0.84920 -0.26700
C 	C 	0.40520 0.58400 0.76510 0.15500
C 	C 	0.44770 0.05060 0.55630 -0.07300
C 	C 	0.52890 0.03840 0.43290 -0.07400
C 	C 	0.47880 0.08650 0.49120 0.09000
C 	C 	0.54360 0.25530 0.46670 0.00900
C 	C 	0.34630 0.20940 0.48440 0.12000
C 	C 	0.48030 0.32480 0.46190 0.00200
C 	C 	0.42620 0.64620 0.26180 -0.37400
C 	C 	0.63890 0.05790 0.22360 0.35200
C 	C 	0.75980 0.04480 0.25320 -0.38300
C 	C 	0.61730 0.14910 0.24770 -0.35300
C 	C 	0.94740 0.29020 0.39500 0.54500
C 	C 	0.83860 0.20880 0.33540 -0.29800
C 	C 	0.85940 0.11750 0.31020 0.26000
C 	C 	0.71690 0.22220 0.30420 0.25600
C 	C 	0.54860 0.91000 0.12370 -0.02900
C 	C 	0.41360 0.84780 0.06830 0.16100
C 	C 	0.33560 0.80670 0.12640 -0.04100
C 	C 	0.35200 0.69810 0.22230 0.36300
C 	C 	0.22900 0.69750 0.23660 -0.37300
C 	C 	0.44470 0.76830 0.00400 -0.06000
C 	C 	0.33040 0.90590 0.01450 -0.58500
C 	C 	0.79350 0.47410 0.61260 0.46600
C 	C 	0.74450 0.41260 0.67200 -0.26000
C 	C 	0.81780 0.35780 0.71070 0.24100
C 	C 	0.62250 0.41110 0.68740 0.23100
C 	C 	0.73880 0.51990 0.37480 0.39900
C 	C 	0.72200 0.46430 0.28680 -0.20100
C 	C 	0.83170 0.45560 0.25630 0.14300
C 	C 	0.81650 0.39910 0.17340 -0.24200
C 	C 	0.68790 0.35000 0.12300 0.25900
C 	C 	0.57510 0.36140 0.15080 -0.25500
C 	C 	0.59480 0.41600 0.23490 0.14200
C 	C 	0.55230 0.94940 0.44370 -0.08800
C 	C 	0.47110 0.96160 0.56710 -0.09000
C 	C 	0.52120 0.91350 0.50880 0.10400
C 	C 	0.45640 0.74470 0.53330 0.01100
C 	C 	0.65370 0.79060 0.51560 0.12300
C 	C 	0.51970 0.67520 0.53810 0.00400
C 	C 	0.57380 0.35380 0.73820 -0.35200
C 	C 	0.36110 0.94210 0.77640 0.32700
C 	C 	0.24020 0.95520 0.74680 -0.35900
C 	C 	0.38270 0.85090 0.75230 -0.32500
C 	C 	0.05260 0.70980 0.60500 0.38900
C 	C 	0.16140 0.79120 0.66460 -0.25100
C 	C 	0.14060 0.88250 0.68980 0.21200
C 	C 	0.28310 0.77780 0.69580 0.21200
C 	C 	0.45140 0.09000 0.87630 -0.03900
C 	C 	0.58640 0.15220 0.93170 0.18100
C 	C 	0.66440 0.19330 0.87360 -0.06500
C 	C 	0.64800 0.30190 0.77770 0.35100
C 	C 	0.77100 0.30250 0.76340 -0.34600
C 	C 	0.55530 0.23170 0.99600 -0.06600
C 	C 	0.66960 0.09410 0.98550 -0.62700
N 	N 	0.35520 0.29380 0.47240 -0.25900
N 	N 	0.45920 0.18150 0.48230 -0.14100
N 	N 	0.64480 0.70620 0.52760 -0.25600
N 	N 	0.54080 0.81850 0.51770 -0.14100
O 	O 	0.26140 0.45910 0.39850 -0.51300
O 	O 	0.36240 0.47160 0.59890 -0.40400
O 	O 	0.15080 0.44290 0.57370 -0.57100
O 	O 	0.91900 0.36550 0.41890 -0.47800
O 	O 	0.11600 0.54440 0.41870 -0.49300
O 	O 	0.31810 0.70590 0.95570 -0.23600
O 	O 	0.40740 0.75170 0.17130 -0.25900
O 	O 	0.53140 0.99050 0.17140 -0.27500
O 	O 	0.06310 0.27460 0.41630 -0.55800
O 	O 	0.73860 0.54090 0.60150 -0.49700
O 	O 	0.63760 0.52840 0.40110 -0.39900
O 	O 	0.84920 0.55710 0.42630 -0.53100
O 	O 	0.08100 0.63450 0.58110 -0.47400
O 	O 	0.88400 0.45560 0.58130 -0.44400
O 	O 	0.68190 0.29410 0.04430 -0.22700
O 	O 	0.59260 0.24830 0.82870 -0.25000
O 	O 	0.46860 0.00950 0.82860 -0.26400
O 	O 	0.93690 0.72540 0.58370 -0.42900
