data_crystal

_cell_length_a 10.15680
_cell_length_b 11.50080
_cell_length_c 15.28300
_cell_angle_alpha 90.94640
_cell_angle_beta  90.00000
_cell_angle_gamma 90.00000

_symmetry_space_group_name_	'P 1'
_symmetry_space_group_name_H-M	'P 1'

loop_
_symmetry_equiv_pos_as_xyz
  x,y,z

loop_
_atom_site_label
_atom_site_type_symbol
_atom_site_fract_x
_atom_site_fract_y
_atom_site_fract_z
_atom_site_charge
Fe	Fe	0.93155 0.75415 0.13429 1.25500
Fe	Fe	0.87095 0.25945 0.69900 1.23000
Fe	Fe	0.43155 0.74585 0.36571 1.20100
Fe	Fe	0.37095 0.24055 0.80100 1.20600
Fe	Fe	0.06845 0.24585 0.86571 1.14100
Fe	Fe	0.12905 0.74055 0.30100 1.19000
Fe	Fe	0.56845 0.25415 0.63429 1.19300
Fe	Fe	0.62905 0.75945 0.19900 1.21300
Fe	Fe	-0.00000 0.50000 -0.00000 1.11000
Fe	Fe	0.50000 0.00000 0.50000 1.18800
Fe	Fe	-0.00000 0.00000 -0.00000 1.07700
Fe	Fe	0.50000 0.50000 0.50000 1.22600
H 	H 	0.78400 0.84520 0.37020 -0.08200
H 	H 	0.06600 0.48000 0.25100 -0.15800
H 	H 	0.63200 0.54300 0.06900 -0.11500
H 	H 	0.23400 0.96200 0.20600 -0.12200
H 	H 	0.12300 0.69800 0.91300 -0.13100
H 	H 	0.72200 0.99880 0.03080 -0.09200
H 	H 	0.28400 0.65480 0.12980 -0.12600
H 	H 	0.56600 0.02000 0.24900 -0.27100
H 	H 	0.13200 0.95700 0.43100 -0.09900
H 	H 	0.73400 0.53800 0.29400 -0.07800
H 	H 	0.62300 0.80200 0.58700 -0.06200
H 	H 	0.22200 0.50120 0.46920 -0.10900
H 	H 	0.21600 0.15480 0.62980 -0.12700
H 	H 	0.93400 0.52000 0.74900 -0.08300
H 	H 	0.36800 0.45700 0.93100 -0.05800
H 	H 	0.76600 0.03800 0.79400 -0.06100
H 	H 	0.87700 0.30200 0.08700 -0.01800
H 	H 	0.27800 0.00120 0.96920 -0.07800
H 	H 	0.71600 0.34520 0.87020 -0.07900
H 	H 	0.43400 0.98000 0.75100 0.03000
H 	H 	0.86800 0.04300 0.56900 -0.07500
H 	H 	0.26600 0.46200 0.70600 -0.10800
H 	H 	0.37700 0.19800 0.41300 -0.09900
H 	H 	0.77800 0.49880 0.53080 -0.07400
C 	C 	0.85180 0.82285 0.32875 0.46700
C 	C 	0.04270 0.52060 0.20160 0.55600
C 	C 	0.72410 0.56500 0.07110 0.48000
C 	C 	0.15710 0.93960 0.16800 0.57700
C 	C 	0.08020 0.74170 0.96080 0.61900
C 	C 	0.73640 0.93504 0.06944 0.45500
C 	C 	0.35180 0.67715 0.17125 0.48300
C 	C 	0.54270 0.97940 0.29840 0.81500
C 	C 	0.22410 0.93500 0.42890 0.46400
C 	C 	0.65710 0.56040 0.33200 0.45500
C 	C 	0.58020 0.75830 0.53920 0.44700
C 	C 	0.23640 0.56496 0.43056 0.47300
C 	C 	0.14820 0.17715 0.67125 0.48600
C 	C 	0.95730 0.47940 0.79840 0.49000
C 	C 	0.27590 0.43500 0.92890 0.44400
C 	C 	0.84290 0.06040 0.83200 0.33400
C 	C 	0.91980 0.25830 0.03920 0.26300
C 	C 	0.26360 0.06496 0.93056 0.46300
C 	C 	0.64820 0.32285 0.82875 0.46900
C 	C 	0.45730 0.02060 0.70160 0.23500
C 	C 	0.77590 0.06500 0.57110 0.46800
C 	C 	0.34290 0.43960 0.66800 0.46500
C 	C 	0.41980 0.24170 0.46080 0.45900
C 	C 	0.76360 0.43504 0.56944 0.45800
O 	O 	0.81878 0.80429 0.25004 -0.52000
O 	O 	0.96250 0.80941 0.36021 -0.36000
O 	O 	0.02428 0.62821 0.21221 -0.62000
O 	O 	0.03080 0.46359 0.13359 -0.52200
O 	O 	0.75596 0.65142 0.11962 -0.53700
O 	O 	0.79726 0.50944 0.02124 -0.44600
O 	O 	0.09741 0.84725 0.18825 -0.61100
O 	O 	0.13200 0.00356 0.10666 -0.57000
O 	O 	0.01951 0.68639 0.02039 -0.69800
O 	O 	0.08800 0.84830 0.95400 -0.42400
O 	O 	0.85505 0.90006 0.07106 -0.50400
O 	O 	0.64209 0.89404 0.10994 -0.42400
O 	O 	0.31878 0.69571 0.24996 -0.55300
O 	O 	0.46250 0.69059 0.13979 -0.45500
O 	O 	0.52428 0.87179 0.28779 -0.63200
O 	O 	0.53080 0.03641 0.36641 -0.57700
O 	O 	0.25596 0.84858 0.38038 -0.54700
O 	O 	0.29726 0.99056 0.47876 -0.39900
O 	O 	0.59741 0.65275 0.31175 -0.54000
O 	O 	0.63200 0.49644 0.39334 -0.42100
O 	O 	0.51951 0.81361 0.47961 -0.52200
O 	O 	0.58800 0.65170 0.54600 -0.42500
O 	O 	0.35505 0.59994 0.42894 -0.55100
O 	O 	0.14209 0.60596 0.39006 -0.46100
O 	O 	0.18122 0.19571 0.74996 -0.58100
O 	O 	0.03750 0.19059 0.63979 -0.51800
O 	O 	0.97572 0.37179 0.78779 -0.50500
O 	O 	0.96920 0.53641 0.86641 -0.34100
O 	O 	0.24404 0.34858 0.88038 -0.54500
O 	O 	0.20274 0.49056 0.97876 -0.37800
O 	O 	0.90259 0.15275 0.81175 -0.47000
O 	O 	0.86800 0.99644 0.89334 -0.24200
O 	O 	0.98049 0.31361 0.97961 -0.33700
O 	O 	0.91200 0.15170 0.04600 -0.38800
O 	O 	0.14495 0.09994 0.92894 -0.54500
O 	O 	0.35791 0.10596 0.89006 -0.43300
O 	O 	0.68122 0.30429 0.75004 -0.54700
O 	O 	0.53750 0.30941 0.86021 -0.41800
O 	O 	0.47572 0.12821 0.71221 -0.49900
O 	O 	0.46920 0.96359 0.63359 -0.31000
O 	O 	0.74404 0.15142 0.61962 -0.53900
O 	O 	0.70274 0.00944 0.52124 -0.45000
O 	O 	0.40259 0.34725 0.68825 -0.55100
O 	O 	0.36800 0.50356 0.60666 -0.43500
O 	O 	0.48049 0.18639 0.52039 -0.54700
O 	O 	0.41200 0.34830 0.45400 -0.44400
O 	O 	0.64495 0.40006 0.57106 -0.53900
O 	O 	0.85791 0.39404 0.60994 -0.39900
