data_crystal

_cell_length_a 9.99220
_cell_length_b 11.41360
_cell_length_c 14.97070
_cell_angle_alpha 91.12160
_cell_angle_beta  90.00000
_cell_angle_gamma 90.00000

_symmetry_space_group_name_	'P 1'
_symmetry_space_group_name_H-M	'P 1'

loop_
_symmetry_equiv_pos_as_xyz
  x,y,z

loop_
_atom_site_label
_atom_site_type_symbol
_atom_site_fract_x
_atom_site_fract_y
_atom_site_fract_z
_atom_site_charge
Fe	Fe	0.92406 0.75482 0.13371 1.25500
Fe	Fe	0.88419 0.26132 0.69274 1.23100
Fe	Fe	0.42406 0.74518 0.36629 1.20000
Fe	Fe	0.38419 0.23868 0.80726 1.20600
Fe	Fe	0.07594 0.24518 0.86629 1.14000
Fe	Fe	0.11581 0.73868 0.30726 1.18900
Fe	Fe	0.57594 0.25482 0.63371 1.19200
Fe	Fe	0.61581 0.76132 0.19274 1.21300
Fe	Fe	0.00000 0.50000 -0.00000 1.11000
Fe	Fe	0.50000 0.00000 0.50000 1.18800
Fe	Fe	-0.00000 0.00000 -0.00000 1.07500
Fe	Fe	0.50000 0.50000 0.50000 1.22600
H 	H 	0.76500 0.85900 0.36900 -0.06800
H 	H 	0.05400 0.47800 0.25900 -0.14100
H 	H 	0.62300 0.55800 0.05400 -0.14500
H 	H 	0.22100 0.97400 0.21800 -0.10600
H 	H 	0.14600 0.69700 0.92600 -0.16600
H 	H 	0.71000 0.99300 0.02000 -0.10900
H 	H 	0.26500 0.64100 0.13100 -0.11400
H 	H 	0.55400 0.02200 0.24100 -0.25200
H 	H 	0.12300 0.94200 0.44600 -0.12700
H 	H 	0.72100 0.52600 0.28200 -0.06600
H 	H 	0.64600 0.80300 0.57400 -0.09100
H 	H 	0.21000 0.50700 0.48000 -0.12800
H 	H 	0.23500 0.14100 0.63100 -0.11400
H 	H 	0.94600 0.52200 0.74100 -0.07000
H 	H 	0.37700 0.44200 0.94600 -0.08000
H 	H 	0.77900 0.02600 0.78200 -0.05300
H 	H 	0.85400 0.30300 0.07400 -0.04400
H 	H 	0.29000 0.00700 0.98000 -0.09400
H 	H 	0.73500 0.35900 0.86900 -0.06500
H 	H 	0.44600 0.97800 0.75900 0.04000
H 	H 	0.87700 0.05800 0.55400 -0.10000
H 	H 	0.27900 0.47400 0.71800 -0.09600
H 	H 	0.35400 0.19700 0.42600 -0.13500
H 	H 	0.79000 0.49300 0.52000 -0.08800
C 	C 	0.83540 0.82760 0.32950 0.44500
C 	C 	0.02820 0.51700 0.20640 0.52500
C 	C 	0.71470 0.57090 0.05830 0.53200
C 	C 	0.14250 0.94710 0.17870 0.55700
C 	C 	0.09480 0.74270 0.96520 0.68800
C 	C 	0.72550 0.93320 0.05950 0.48200
C 	C 	0.33540 0.67240 0.17050 0.45800
C 	C 	0.52820 0.98300 0.29360 0.78100
C 	C 	0.21470 0.92910 0.44170 0.51400
C 	C 	0.64250 0.55290 0.32130 0.43600
C 	C 	0.59480 0.75730 0.53480 0.49900
C 	C 	0.22550 0.56680 0.44050 0.50400
C 	C 	0.16460 0.17240 0.67050 0.46100
C 	C 	0.97180 0.48300 0.79360 0.46900
C 	C 	0.28530 0.42910 0.94170 0.48800
C 	C 	0.85750 0.05290 0.82130 0.31800
C 	C 	0.90520 0.25730 0.03480 0.30200
C 	C 	0.27450 0.06680 0.94050 0.48900
C 	C 	0.66460 0.32760 0.82950 0.44700
C 	C 	0.47180 0.01700 0.70640 0.22000
C 	C 	0.78530 0.07090 0.55830 0.51500
C 	C 	0.35750 0.44710 0.67870 0.44700
C 	C 	0.40520 0.24270 0.46520 0.52100
C 	C 	0.77450 0.43320 0.55950 0.48200
O 	O 	0.80685 0.80759 0.24839 -0.51500
O 	O 	0.94605 0.81130 0.36530 -0.34700
O 	O 	0.01183 0.62623 0.21553 -0.61200
O 	O 	0.01650 0.45942 0.13672 -0.51200
O 	O 	0.74605 0.65256 0.11276 -0.55400
O 	O 	0.79100 0.51348 0.01038 -0.46300
O 	O 	0.08831 0.84886 0.19316 -0.60700
O 	O 	0.11730 0.01262 0.11662 -0.56400
O 	O 	0.02494 0.68654 0.02164 -0.71500
O 	O 	0.10270 0.84918 0.95918 -0.44300
O 	O 	0.84679 0.89897 0.06527 -0.51100
O 	O 	0.62853 0.89417 0.10057 -0.43300
O 	O 	0.30685 0.69241 0.25161 -0.54900
O 	O 	0.44605 0.68870 0.13470 -0.44400
O 	O 	0.51183 0.87377 0.28447 -0.62200
O 	O 	0.51650 0.04058 0.36328 -0.56700
O 	O 	0.24605 0.84744 0.38724 -0.56300
O 	O 	0.29100 0.98652 0.48962 -0.40900
O 	O 	0.58831 0.65114 0.30684 -0.53600
O 	O 	0.61730 0.48738 0.38338 -0.41600
O 	O 	0.52494 0.81346 0.47836 -0.53500
O 	O 	0.60270 0.65082 0.54082 -0.43900
O 	O 	0.34679 0.60103 0.43473 -0.55900
O 	O 	0.12853 0.60583 0.39943 -0.47100
O 	O 	0.19315 0.19241 0.75161 -0.57800
O 	O 	0.05395 0.18870 0.63470 -0.50400
O 	O 	0.98817 0.37377 0.78447 -0.49900
O 	O 	0.98350 0.54058 0.86328 -0.33100
O 	O 	0.25395 0.34744 0.88724 -0.55900
O 	O 	0.20900 0.48652 0.98962 -0.38500
O 	O 	0.91169 0.15114 0.80684 -0.46600
O 	O 	0.88270 0.98738 0.88338 -0.23500
O 	O 	0.97506 0.31346 0.97836 -0.34800
O 	O 	0.89730 0.15082 0.04082 -0.40100
O 	O 	0.15321 0.10103 0.93473 -0.55100
O 	O 	0.37147 0.10583 0.89943 -0.44000
O 	O 	0.69315 0.30759 0.74839 -0.54300
O 	O 	0.55395 0.31130 0.86530 -0.40400
O 	O 	0.48817 0.12623 0.71553 -0.49500
O 	O 	0.48350 0.95942 0.63672 -0.30000
O 	O 	0.75395 0.15256 0.61276 -0.55400
O 	O 	0.70900 0.01348 0.51038 -0.46300
O 	O 	0.41169 0.34886 0.69316 -0.54700
O 	O 	0.38270 0.51262 0.61662 -0.42700
O 	O 	0.47506 0.18654 0.52164 -0.56300
O 	O 	0.39730 0.34918 0.45918 -0.46300
O 	O 	0.65321 0.39897 0.56527 -0.54500
O 	O 	0.87147 0.39417 0.60057 -0.40600
