data_crystal

_cell_length_a 9.90230
_cell_length_b 11.33900
_cell_length_c 14.87660
_cell_angle_alpha 90.95940
_cell_angle_beta  90.00000
_cell_angle_gamma 90.00000

_symmetry_space_group_name_	'P 1'
_symmetry_space_group_name_H-M	'P 1'

loop_
_symmetry_equiv_pos_as_xyz
  x,y,z

loop_
_atom_site_label
_atom_site_type_symbol
_atom_site_fract_x
_atom_site_fract_y
_atom_site_fract_z
_atom_site_charge
Fe	Fe	0.92069 0.75484 0.13363 1.25200
Fe	Fe	0.88923 0.26200 0.69097 1.22700
Fe	Fe	0.42069 0.74516 0.36637 1.19800
Fe	Fe	0.38923 0.23800 0.80903 1.20400
Fe	Fe	0.07931 0.24516 0.86637 1.13800
Fe	Fe	0.11077 0.73800 0.30903 1.18700
Fe	Fe	0.57931 0.25484 0.63363 1.19100
Fe	Fe	0.61077 0.76200 0.19097 1.21000
Fe	Fe	-0.00000 0.50000 -0.00000 1.10800
Fe	Fe	0.50000 0.00000 0.50000 1.18300
Fe	Fe	-0.00000 0.00000 -0.00000 1.07100
Fe	Fe	0.50000 0.50000 0.50000 1.22400
H 	H 	0.75700 0.86510 0.36910 -0.05700
H 	H 	0.03600 0.46900 0.26700 -0.09900
H 	H 	0.61300 0.55200 0.05100 -0.10700
H 	H 	0.21400 0.97500 0.21700 -0.13700
H 	H 	0.15200 0.69570 0.93070 -0.17800
H 	H 	0.70900 0.99100 0.01100 -0.09300
H 	H 	0.25700 0.63490 0.13090 -0.10400
H 	H 	0.53600 0.03100 0.23300 -0.19000
H 	H 	0.11300 0.94800 0.44900 -0.08700
H 	H 	0.71400 0.52500 0.28300 -0.08800
H 	H 	0.65200 0.80430 0.56930 -0.09900
H 	H 	0.20900 0.50900 0.48900 -0.11100
H 	H 	0.24300 0.13490 0.63090 -0.10500
H 	H 	0.96400 0.53100 0.73300 -0.02900
H 	H 	0.38700 0.44800 0.94900 -0.04400
H 	H 	0.78600 0.02500 0.78300 -0.06800
H 	H 	0.84800 0.30430 0.06930 -0.05200
H 	H 	0.29100 0.00900 0.98900 -0.07900
H 	H 	0.74300 0.36510 0.86910 -0.05500
H 	H 	0.46400 0.96900 0.76700 0.06100
H 	H 	0.88700 0.05200 0.55100 -0.06400
H 	H 	0.28600 0.47500 0.71700 -0.12100
H 	H 	0.34800 0.19570 0.43070 -0.14700
H 	H 	0.79100 0.49100 0.51100 -0.07300
C 	C 	0.82950 0.83106 0.32976 0.42500
C 	C 	0.02100 0.51460 0.20910 0.44900
C 	C 	0.71060 0.57120 0.05490 0.45900
C 	C 	0.13700 0.95030 0.18170 0.61300
C 	C 	0.10080 0.74300 0.96740 0.70000
C 	C 	0.72060 0.93092 0.05442 0.45700
C 	C 	0.32950 0.66894 0.17024 0.43600
C 	C 	0.52100 0.98540 0.29090 0.67500
C 	C 	0.21060 0.92880 0.44510 0.44400
C 	C 	0.63700 0.54970 0.31830 0.47000
C 	C 	0.60080 0.75700 0.53260 0.50800
C 	C 	0.22060 0.56908 0.44558 0.47700
C 	C 	0.17050 0.16894 0.67024 0.43800
C 	C 	0.97900 0.48540 0.79090 0.40600
C 	C 	0.28940 0.42880 0.94510 0.42900
C 	C 	0.86300 0.04970 0.81830 0.33400
C 	C 	0.89920 0.25700 0.03260 0.31000
C 	C 	0.27940 0.06908 0.94558 0.46600
C 	C 	0.67050 0.33106 0.82976 0.42700
C 	C 	0.47900 0.01460 0.70910 0.18600
C 	C 	0.78940 0.07120 0.55490 0.45100
C 	C 	0.36300 0.45030 0.68170 0.48700
C 	C 	0.39920 0.24300 0.46740 0.53300
C 	C 	0.77940 0.43092 0.55442 0.46100
O 	O 	0.80166 0.81001 0.24741 -0.51100
O 	O 	0.94005 0.81283 0.36693 -0.34400
O 	O 	0.00565 0.62494 0.21714 -0.59200
O 	O 	0.01030 0.45638 0.13798 -0.48400
O 	O 	0.74227 0.65142 0.11192 -0.53400
O 	O 	0.78965 0.51460 0.00630 -0.44300
O 	O 	0.08618 0.84928 0.19408 -0.62200
O 	O 	0.11119 0.01753 0.12003 -0.58400
O 	O 	0.02586 0.68641 0.02261 -0.71700
O 	O 	0.11017 0.85003 0.96143 -0.44300
O 	O 	0.84297 0.89748 0.06256 -0.50700
O 	O 	0.62224 0.89427 0.09707 -0.43000
O 	O 	0.30166 0.68999 0.25259 -0.54300
O 	O 	0.44005 0.68717 0.13307 -0.44100
O 	O 	0.50565 0.87506 0.28286 -0.59300
O 	O 	0.51030 0.04362 0.36202 -0.53300
O 	O 	0.24227 0.84858 0.38808 -0.54300
O 	O 	0.28965 0.98540 0.49370 -0.38400
O 	O 	0.58618 0.65072 0.30592 -0.54600
O 	O 	0.61119 0.48247 0.37997 -0.42600
O 	O 	0.52586 0.81359 0.47739 -0.53700
O 	O 	0.61017 0.64997 0.53857 -0.44100
O 	O 	0.34297 0.60252 0.43744 -0.55400
O 	O 	0.12224 0.60573 0.40293 -0.46800
O 	O 	0.19834 0.18999 0.75259 -0.57300
O 	O 	0.05995 0.18717 0.63307 -0.50000
O 	O 	0.99435 0.37506 0.78286 -0.48300
O 	O 	0.98970 0.54362 0.86202 -0.30700
O 	O 	0.25773 0.34858 0.88808 -0.54300
O 	O 	0.21035 0.48540 0.99370 -0.36500
O 	O 	0.91382 0.15072 0.80592 -0.47200
O 	O 	0.88881 0.98247 0.87997 -0.23600
O 	O 	0.97414 0.31359 0.97739 -0.35200
O 	O 	0.88983 0.14997 0.03857 -0.40500
O 	O 	0.15703 0.10252 0.93744 -0.54700
O 	O 	0.37776 0.10573 0.90293 -0.43700
O 	O 	0.69834 0.31001 0.74741 -0.53900
O 	O 	0.55995 0.31283 0.86693 -0.40000
O 	O 	0.49435 0.12494 0.71714 -0.48700
O 	O 	0.48970 0.95638 0.63798 -0.28200
O 	O 	0.75773 0.15142 0.61192 -0.53800
O 	O 	0.71035 0.01460 0.50630 -0.44700
O 	O 	0.41382 0.34928 0.69408 -0.55900
O 	O 	0.38881 0.51753 0.62003 -0.43800
O 	O 	0.47414 0.18641 0.52261 -0.56800
O 	O 	0.38983 0.35003 0.46143 -0.46600
O 	O 	0.65703 0.39748 0.56256 -0.54200
O 	O 	0.87776 0.39427 0.59707 -0.40200
