data_crystal

_cell_length_a 9.84740
_cell_length_b 11.33690
_cell_length_c 14.45070
_cell_angle_alpha 91.14170
_cell_angle_beta  90.00000
_cell_angle_gamma 90.00000

_symmetry_space_group_name_	'P 1'
_symmetry_space_group_name_H-M	'P 1'

loop_
_symmetry_equiv_pos_as_xyz
  x,y,z

loop_
_atom_site_label
_atom_site_type_symbol
_atom_site_fract_x
_atom_site_fract_y
_atom_site_fract_z
_atom_site_charge
Fe	Fe	0.91782 0.75529 0.13235 1.21900
Fe	Fe	0.89607 0.26095 0.68536 1.23700
Fe	Fe	0.41782 0.74471 0.36765 1.19800
Fe	Fe	0.39607 0.23905 0.81464 1.21000
Fe	Fe	0.08218 0.24471 0.86765 1.17500
Fe	Fe	0.10393 0.73905 0.31464 1.18300
Fe	Fe	0.58218 0.25529 0.63235 1.19100
Fe	Fe	0.60393 0.76095 0.18536 1.21100
Fe	Fe	-0.00000 0.50000 -0.00000 1.13800
Fe	Fe	0.50000 0.00000 0.50000 1.18500
Fe	Fe	-0.00000 0.00000 -0.00000 1.10300
Fe	Fe	0.50000 0.50000 0.50000 1.22000
H 	H 	0.74720 0.86070 0.36840 -0.08500
H 	H 	0.02220 0.47290 0.26990 -0.04400
H 	H 	0.61500 0.55720 0.03410 -0.07400
H 	H 	0.17250 0.99050 0.24220 -0.14100
H 	H 	0.16970 0.69800 0.93150 -0.11200
H 	H 	0.69870 0.98340 0.99670 0.05700
H 	H 	0.24720 0.63930 0.13160 -0.12000
H 	H 	0.52220 0.02710 0.23010 -0.23500
H 	H 	0.11500 0.94280 0.46590 -0.09600
H 	H 	0.67250 0.50950 0.25780 -0.10900
H 	H 	0.66970 0.80200 0.56850 -0.07500
H 	H 	0.19870 0.51660 0.50330 -0.10400
H 	H 	0.25280 0.13930 0.63160 -0.12500
H 	H 	0.97780 0.52710 0.73010 -0.14500
H 	H 	0.38500 0.44280 0.96590 -0.11600
H 	H 	0.82750 0.00950 0.75780 -0.07700
H 	H 	0.83030 0.30200 0.06850 -0.07000
H 	H 	0.30130 0.01660 0.00330 -0.22500
H 	H 	0.75280 0.36070 0.86840 -0.08900
H 	H 	0.47780 0.97290 0.76990 0.04400
H 	H 	0.88500 0.05720 0.53410 -0.09300
H 	H 	0.32750 0.49050 0.74220 -0.11200
H 	H 	0.33030 0.19800 0.43150 -0.11300
H 	H 	0.80130 0.48340 0.49670 -0.07400
C 	C 	0.81970 0.82960 0.33200 0.46300
C 	C 	0.00540 0.51420 0.21450 0.21700
C 	C 	0.70850 0.57480 0.04290 0.33600
C 	C 	0.11900 0.95950 0.19280 0.60800
C 	C 	0.11150 0.74380 0.97050 0.60900
C 	C 	0.71480 0.92690 0.04310 0.27800
C 	C 	0.31970 0.67040 0.16800 0.47500
C 	C 	0.50540 0.98580 0.28550 0.74000
C 	C 	0.20850 0.92520 0.45710 0.47200
C 	C 	0.61900 0.54050 0.30720 0.48000
C 	C 	0.61150 0.75620 0.52950 0.47200
C 	C 	0.21480 0.57310 0.45690 0.46800
C 	C 	0.18030 0.17040 0.66800 0.48000
C 	C 	0.99460 0.48580 0.78550 0.71400
C 	C 	0.29150 0.42520 0.95710 0.61800
C 	C 	0.88100 0.04050 0.80720 0.34200
C 	C 	0.88850 0.25620 0.02950 0.34700
C 	C 	0.28520 0.07310 0.95690 0.62900
C 	C 	0.68030 0.32960 0.83200 0.46700
C 	C 	0.49460 0.01420 0.71450 0.20600
C 	C 	0.79150 0.07480 0.54290 0.47900
C 	C 	0.38100 0.45950 0.69280 0.48300
C 	C 	0.38850 0.24380 0.47050 0.48900
C 	C 	0.78520 0.42690 0.54310 0.45000
O 	O 	0.79525 0.80939 0.24629 -0.53400
O 	O 	0.92869 0.81266 0.37206 -0.37700
O 	O 	0.99955 0.62592 0.22092 -0.41700
O 	O 	0.99110 0.45417 0.14267 -0.29700
O 	O 	0.73809 0.65165 0.10505 -0.51200
O 	O 	0.79050 0.52083 0.99273 -0.29500
O 	O 	0.07955 0.85225 0.19885 -0.61200
O 	O 	0.09391 0.02589 0.12899 -0.55800
O 	O 	0.03007 0.68710 0.02310 -0.66600
O 	O 	0.12115 0.85116 0.96586 -0.41100
O 	O 	0.83830 0.89588 0.05688 -0.47000
O 	O 	0.61433 0.88908 0.08538 -0.37300
O 	O 	0.29525 0.69061 0.25371 -0.55600
O 	O 	0.42869 0.68734 0.12794 -0.44300
O 	O 	0.49955 0.87408 0.27908 -0.61200
O 	O 	0.49110 0.04583 0.35733 -0.54300
O 	O 	0.23809 0.84835 0.39495 -0.54500
O 	O 	0.29050 0.97917 0.50727 -0.39400
O 	O 	0.57955 0.64775 0.30115 -0.54700
O 	O 	0.59391 0.47411 0.37101 -0.43600
O 	O 	0.53007 0.81290 0.47690 -0.53300
O 	O 	0.62115 0.64884 0.53414 -0.42700
O 	O 	0.33830 0.60412 0.44312 -0.55000
O 	O 	0.11433 0.61092 0.41462 -0.45600
O 	O 	0.20475 0.19061 0.75371 -0.56800
O 	O 	0.07131 0.18734 0.62794 -0.48100
O 	O 	0.00045 0.37408 0.77908 -0.67900
O 	O 	0.00890 0.54583 0.85733 -0.51400
O 	O 	0.26191 0.34835 0.89495 -0.57800
O 	O 	0.20950 0.47917 0.00727 -0.54600
O 	O 	0.92045 0.14775 0.80115 -0.48000
O 	O 	0.90609 0.97411 0.87101 -0.27800
O 	O 	0.96993 0.31290 0.97690 -0.41300
O 	O 	0.87885 0.14884 0.03414 -0.42000
O 	O 	0.16170 0.10412 0.94312 -0.58400
O 	O 	0.38567 0.11092 0.91462 -0.47600
O 	O 	0.70475 0.30939 0.74629 -0.54600
O 	O 	0.57131 0.31266 0.87206 -0.41600
O 	O 	0.50045 0.12592 0.72092 -0.49300
O 	O 	0.50890 0.95417 0.64267 -0.28900
O 	O 	0.76191 0.15165 0.60505 -0.54800
O 	O 	0.70950 0.02083 0.49273 -0.45700
O 	O 	0.42045 0.35225 0.69885 -0.55200
O 	O 	0.40609 0.52589 0.62899 -0.43700
O 	O 	0.46993 0.18710 0.52310 -0.55800
O 	O 	0.37885 0.35116 0.46586 -0.44600
O 	O 	0.66170 0.39588 0.55688 -0.54000
O 	O 	0.88567 0.38908 0.58538 -0.39600
