data_crystal

_cell_length_a 9.98030
_cell_length_b 11.45250
_cell_length_c 14.86190
_cell_angle_alpha 91.27800
_cell_angle_beta  90.00000
_cell_angle_gamma 90.00000

_symmetry_space_group_name_	'P 1'
_symmetry_space_group_name_H-M	'P 1'

loop_
_symmetry_equiv_pos_as_xyz
  x,y,z

loop_
_atom_site_label
_atom_site_type_symbol
_atom_site_fract_x
_atom_site_fract_y
_atom_site_fract_z
_atom_site_charge
Fe	Fe	0.92377 0.75591 0.13368 1.25600
Fe	Fe	0.88453 0.26049 0.69198 1.23100
Fe	Fe	0.42377 0.74409 0.36632 1.19900
Fe	Fe	0.38453 0.23951 0.80802 1.20500
Fe	Fe	0.07623 0.24409 0.86632 1.13800
Fe	Fe	0.11547 0.73951 0.30802 1.18800
Fe	Fe	0.57623 0.25591 0.63368 1.19300
Fe	Fe	0.61547 0.76049 0.19198 1.21100
Fe	Fe	0.00000 0.50000 -0.00000 1.11000
Fe	Fe	0.50000 0.00000 0.50000 1.18900
Fe	Fe	-0.00000 0.00000 -0.00000 1.07800
Fe	Fe	0.50000 0.50000 0.50000 1.22400
H 	H 	0.75800 0.84280 0.37080 -0.08000
H 	H 	0.05600 0.47130 0.26130 -0.10000
H 	H 	0.62000 0.55360 0.05160 -0.12700
H 	H 	0.20600 0.97800 0.22300 -0.14300
H 	H 	0.14600 0.69610 0.92710 -0.17600
H 	H 	0.70800 0.00170 0.02170 -0.18400
H 	H 	0.25800 0.65720 0.12920 -0.12200
H 	H 	0.55600 0.02870 0.23870 -0.17300
H 	H 	0.12000 0.94640 0.44840 -0.11100
H 	H 	0.70600 0.52200 0.27700 -0.09700
H 	H 	0.64600 0.80390 0.57290 -0.09800
H 	H 	0.20800 0.49830 0.47830 -0.10000
H 	H 	0.24200 0.15720 0.62920 -0.11900
H 	H 	0.94400 0.52870 0.73870 -0.03400
H 	H 	0.38000 0.44640 0.94840 -0.06500
H 	H 	0.79400 0.02200 0.77700 -0.07400
H 	H 	0.85400 0.30390 0.07290 -0.04600
H 	H 	0.29200 0.99830 0.97830 0.04100
H 	H 	0.74200 0.34280 0.87080 -0.07400
H 	H 	0.44400 0.97130 0.76130 0.04000
H 	H 	0.88000 0.05360 0.55160 -0.08100
H 	H 	0.29400 0.47800 0.72300 -0.12400
H 	H 	0.35400 0.19610 0.42710 -0.14000
H 	H 	0.79200 0.50170 0.52170 -0.06200
C 	C 	0.83300 0.81926 0.33286 0.45400
C 	C 	0.03050 0.51781 0.20651 0.45700
C 	C 	0.71330 0.57093 0.05643 0.49300
C 	C 	0.13820 0.95110 0.18190 0.60100
C 	C 	0.09560 0.74238 0.96538 0.69400
C 	C 	0.72570 0.93699 0.06159 0.55900
C 	C 	0.33300 0.68074 0.16714 0.46500
C 	C 	0.53050 0.98219 0.29349 0.64700
C 	C 	0.21330 0.92907 0.44357 0.47700
C 	C 	0.63820 0.54890 0.31810 0.47600
C 	C 	0.59560 0.75762 0.53462 0.50500
C 	C 	0.22570 0.56301 0.43841 0.46000
C 	C 	0.16700 0.18074 0.66714 0.46800
C 	C 	0.96950 0.48219 0.79349 0.41400
C 	C 	0.28670 0.42907 0.94357 0.45600
C 	C 	0.86180 0.04890 0.81810 0.35400
C 	C 	0.90440 0.25762 0.03462 0.30800
C 	C 	0.27430 0.06301 0.93841 0.32200
C 	C 	0.66700 0.31926 0.83286 0.45600
C 	C 	0.46950 0.01781 0.70651 0.22600
C 	C 	0.78670 0.07093 0.55643 0.47900
C 	C 	0.36180 0.45110 0.68190 0.48800
C 	C 	0.40440 0.24238 0.46538 0.52600
C 	C 	0.77430 0.43699 0.56159 0.44400
O 	O 	0.80613 0.80349 0.24967 -0.51800
O 	O 	0.94314 0.80362 0.36889 -0.35400
O 	O 	0.01358 0.62716 0.21478 -0.59200
O 	O 	0.01456 0.45797 0.13737 -0.49000
O 	O 	0.74544 0.65416 0.10994 -0.54300
O 	O 	0.79106 0.51293 0.00825 -0.44700
O 	O 	0.08570 0.85161 0.19564 -0.61800
O 	O 	0.11513 0.01453 0.11806 -0.57800
O 	O 	0.02476 0.68690 0.02232 -0.71400
O 	O 	0.10313 0.84846 0.95847 -0.45500
O 	O 	0.84662 0.90087 0.06615 -0.53100
O 	O 	0.62902 0.89759 0.10283 -0.45600
O 	O 	0.30613 0.69651 0.25033 -0.55000
O 	O 	0.44314 0.69638 0.13111 -0.45100
O 	O 	0.51358 0.87284 0.28522 -0.58600
O 	O 	0.51456 0.04203 0.36263 -0.52000
O 	O 	0.24544 0.84584 0.39006 -0.55300
O 	O 	0.29106 0.98707 0.49175 -0.39900
O 	O 	0.58570 0.64839 0.30436 -0.54600
O 	O 	0.61513 0.48547 0.38194 -0.42900
O 	O 	0.52476 0.81310 0.47768 -0.53800
O 	O 	0.60313 0.65154 0.54153 -0.44000
O 	O 	0.34662 0.59913 0.43385 -0.54900
O 	O 	0.12902 0.60241 0.39717 -0.46000
O 	O 	0.19387 0.19651 0.75033 -0.57900
O 	O 	0.05686 0.19638 0.63111 -0.50900
O 	O 	0.98642 0.37284 0.78522 -0.48300
O 	O 	0.98544 0.54203 0.86263 -0.31300
O 	O 	0.25456 0.34584 0.89006 -0.54900
O 	O 	0.20894 0.48707 0.99175 -0.37500
O 	O 	0.91430 0.14839 0.80436 -0.47400
O 	O 	0.88487 0.98547 0.88194 -0.25000
O 	O 	0.97524 0.31310 0.97768 -0.35300
O 	O 	0.89687 0.15154 0.04153 -0.39200
O 	O 	0.15338 0.09913 0.93385 -0.51200
O 	O 	0.37098 0.10241 0.89717 -0.39500
O 	O 	0.69387 0.30349 0.74967 -0.54500
O 	O 	0.55686 0.30362 0.86889 -0.40900
O 	O 	0.48642 0.12716 0.71478 -0.49400
O 	O 	0.48544 0.95797 0.63737 -0.30600
O 	O 	0.75456 0.15416 0.60994 -0.54400
O 	O 	0.70894 0.01293 0.50825 -0.44700
O 	O 	0.41430 0.35161 0.69564 -0.55600
O 	O 	0.38487 0.51453 0.61806 -0.44200
O 	O 	0.47524 0.18690 0.52232 -0.56400
O 	O 	0.39687 0.34846 0.45847 -0.46200
O 	O 	0.65338 0.40087 0.56615 -0.53600
O 	O 	0.87098 0.39759 0.60283 -0.39600
