data_crystal

_cell_length_a 9.91460
_cell_length_b 11.40810
_cell_length_c 14.84400
_cell_angle_alpha 91.16590
_cell_angle_beta  90.00000
_cell_angle_gamma 90.00000

_symmetry_space_group_name_	'P 1'
_symmetry_space_group_name_H-M	'P 1'

loop_
_symmetry_equiv_pos_as_xyz
  x,y,z

loop_
_atom_site_label
_atom_site_type_symbol
_atom_site_fract_x
_atom_site_fract_y
_atom_site_fract_z
_atom_site_charge
Fe	Fe	0.92162 0.75605 0.13381 1.25500
Fe	Fe	0.88796 0.26086 0.69097 1.23100
Fe	Fe	0.42162 0.74395 0.36619 1.19700
Fe	Fe	0.38796 0.23914 0.80903 1.20500
Fe	Fe	0.07838 0.24395 0.86619 1.13700
Fe	Fe	0.11204 0.73914 0.30903 1.18700
Fe	Fe	0.57838 0.25605 0.63381 1.19200
Fe	Fe	0.61204 0.76086 0.19097 1.21100
Fe	Fe	-0.00000 0.50000 -0.00000 1.10800
Fe	Fe	0.50000 0.00000 0.50000 1.18900
Fe	Fe	-0.00000 0.00000 -0.00000 1.07800
Fe	Fe	0.50000 0.50000 0.50000 1.22400
H 	H 	0.75280 0.84630 0.37000 -0.07700
H 	H 	0.05400 0.47110 0.26110 -0.10800
H 	H 	0.61500 0.55080 0.05380 -0.11600
H 	H 	0.20000 0.97680 0.22880 -0.14300
H 	H 	0.15440 0.69300 0.92990 -0.14300
H 	H 	0.70690 0.00170 0.02270 -0.20400
H 	H 	0.25280 0.65370 0.13000 -0.11900
H 	H 	0.55400 0.02890 0.23890 -0.18400
H 	H 	0.11500 0.94920 0.44620 -0.10200
H 	H 	0.70000 0.52320 0.27120 -0.09700
H 	H 	0.65440 0.80700 0.57010 -0.07600
H 	H 	0.20690 0.49830 0.47730 -0.11600
H 	H 	0.24720 0.15370 0.63000 -0.11600
H 	H 	0.94600 0.52890 0.73890 -0.04200
H 	H 	0.38500 0.44920 0.94620 -0.05600
H 	H 	0.80000 0.02320 0.77120 -0.07300
H 	H 	0.84560 0.30700 0.07010 -0.03600
H 	H 	0.29310 0.99830 0.97730 0.03300
H 	H 	0.74720 0.34630 0.87000 -0.07100
H 	H 	0.44600 0.97110 0.76110 0.03500
H 	H 	0.88500 0.05080 0.55380 -0.07200
H 	H 	0.30000 0.47680 0.72880 -0.12300
H 	H 	0.34560 0.19300 0.42990 -0.11700
H 	H 	0.79310 0.50170 0.52270 -0.07600
C 	C 	0.82850 0.81971 0.33303 0.44700
C 	C 	0.02810 0.51610 0.20730 0.46500
C 	C 	0.71000 0.57050 0.05510 0.47000
C 	C 	0.13600 0.95273 0.18343 0.59300
C 	C 	0.09772 0.74197 0.96627 0.64200
C 	C 	0.72290 0.93852 0.06112 0.59100
C 	C 	0.32850 0.68029 0.16697 0.45700
C 	C 	0.52810 0.98390 0.29270 0.65900
C 	C 	0.21000 0.92950 0.44490 0.45700
C 	C 	0.63600 0.54727 0.31657 0.47400
C 	C 	0.59772 0.75803 0.53373 0.46900
C 	C 	0.22290 0.56148 0.43888 0.48200
C 	C 	0.17150 0.18029 0.66697 0.46000
C 	C 	0.97190 0.48390 0.79270 0.42000
C 	C 	0.29000 0.42950 0.94490 0.43900
C 	C 	0.86400 0.04727 0.81657 0.35300
C 	C 	0.90228 0.25803 0.03373 0.28900
C 	C 	0.27710 0.06148 0.93888 0.32700
C 	C 	0.67150 0.31971 0.83303 0.44900
C 	C 	0.47190 0.01610 0.70730 0.22900
C 	C 	0.79000 0.07050 0.55510 0.46100
C 	C 	0.36400 0.45273 0.68343 0.48300
C 	C 	0.40228 0.24197 0.46627 0.48700
C 	C 	0.77710 0.43852 0.56112 0.46300
O 	O 	0.80302 0.80423 0.24930 -0.51700
O 	O 	0.93892 0.80365 0.37006 -0.35100
O 	O 	0.01013 0.62622 0.21556 -0.59400
O 	O 	0.01409 0.45646 0.13765 -0.49100
O 	O 	0.74250 0.65450 0.10893 -0.53600
O 	O 	0.78947 0.51254 0.00726 -0.44100
O 	O 	0.08363 0.85228 0.19647 -0.61500
O 	O 	0.11458 0.01596 0.11868 -0.57400
O 	O 	0.02456 0.68680 0.02293 -0.70200
O 	O 	0.10511 0.84855 0.95848 -0.43900
O 	O 	0.84445 0.90177 0.06591 -0.54000
O 	O 	0.62438 0.89912 0.10176 -0.46300
O 	O 	0.30302 0.69577 0.25070 -0.54900
O 	O 	0.43892 0.69635 0.12994 -0.44900
O 	O 	0.51013 0.87378 0.28444 -0.58800
O 	O 	0.51409 0.04354 0.36235 -0.52100
O 	O 	0.24250 0.84550 0.39107 -0.54700
O 	O 	0.28947 0.98746 0.49274 -0.39400
O 	O 	0.58363 0.64772 0.30353 -0.54500
O 	O 	0.61458 0.48404 0.38132 -0.42700
O 	O 	0.52456 0.81320 0.47707 -0.53000
O 	O 	0.60511 0.65145 0.54152 -0.42800
O 	O 	0.34445 0.59823 0.43409 -0.55500
O 	O 	0.12438 0.60088 0.39824 -0.46400
O 	O 	0.19698 0.19577 0.75070 -0.57800
O 	O 	0.06108 0.19635 0.62994 -0.50600
O 	O 	0.98987 0.37378 0.78444 -0.48300
O 	O 	0.98591 0.54354 0.86235 -0.31400
O 	O 	0.25750 0.34550 0.89107 -0.54400
O 	O 	0.21053 0.48746 0.99274 -0.36800
O 	O 	0.91637 0.14772 0.80353 -0.47300
O 	O 	0.88542 0.98404 0.88132 -0.25100
O 	O 	0.97544 0.31320 0.97707 -0.34800
O 	O 	0.89489 0.15145 0.04152 -0.38400
O 	O 	0.15555 0.09823 0.93409 -0.51400
O 	O 	0.37562 0.10088 0.89824 -0.39300
O 	O 	0.69698 0.30423 0.74930 -0.54400
O 	O 	0.56108 0.30365 0.87006 -0.40500
O 	O 	0.48987 0.12622 0.71556 -0.49400
O 	O 	0.48591 0.95646 0.63765 -0.30800
O 	O 	0.75750 0.15450 0.60893 -0.53800
O 	O 	0.71053 0.01254 0.50726 -0.44100
O 	O 	0.41637 0.35228 0.69647 -0.55400
O 	O 	0.38542 0.51596 0.61868 -0.44000
O 	O 	0.47544 0.18680 0.52293 -0.55400
O 	O 	0.39489 0.34855 0.45848 -0.44900
O 	O 	0.65555 0.40177 0.56591 -0.54100
O 	O 	0.87562 0.39912 0.60176 -0.39700
