data_crystal

_cell_length_a 15.64800
_cell_length_b 16.34200
_cell_length_c 16.98400
_cell_angle_alpha 90.00000
_cell_angle_beta  103.23000
_cell_angle_gamma 90.00000

_symmetry_space_group_name_	'P 1'
_symmetry_space_group_name_H-M	'P 1'

loop_
_symmetry_equiv_pos_as_xyz
  x,y,z

loop_
_atom_site_label
_atom_site_type_symbol
_atom_site_fract_x
_atom_site_fract_y
_atom_site_fract_z
_atom_site_charge
Zn	Zn	0.63423 0.04109 0.55877 1.22500
Zn	Zn	0.94659 0.99220 0.17468 1.24300
Zn	Zn	0.86577 0.54109 0.44123 1.22900
Zn	Zn	0.55341 0.49220 0.82532 1.23700
Zn	Zn	0.36577 0.95891 0.44123 1.23200
Zn	Zn	0.05341 0.00780 0.82532 1.22500
Zn	Zn	0.13423 0.45891 0.55877 1.22800
Zn	Zn	0.44659 0.50780 0.17468 1.23500
Zn	Zn	-0.00000 0.00000 -0.00000 1.21900
Zn	Zn	0.50000 0.50000 -0.00000 1.23200
H 	H 	0.79850 0.96330 0.65310 0.02500
H 	H 	0.84450 0.84190 0.70920 0.06100
H 	H 	0.74970 0.73540 0.70920 0.08400
H 	H 	0.55470 0.89340 0.61350 0.07100
H 	H 	0.45550 0.71500 0.64060 0.07500
H 	H 	0.47140 0.80230 0.60810 0.06200
H 	H 	0.41230 0.90440 0.67980 0.08500
H 	H 	0.38370 0.95970 0.79680 0.04000
H 	H 	0.49820 0.76570 0.91900 0.04600
H 	H 	0.52440 0.71400 0.80200 0.08900
H 	H 	0.33190 0.99130 0.89860 0.04800
H 	H 	0.30820 0.04250 0.01770 0.04200
H 	H 	0.46510 0.87610 0.14230 0.06200
H 	H 	0.49840 0.82890 0.02510 0.05400
H 	H 	0.35610 0.05620 0.16540 0.06200
H 	H 	0.41430 0.98690 0.21470 0.08400
H 	H 	0.20060 0.03580 0.11860 0.07100
H 	H 	0.08490 0.86130 0.22350 0.10400
H 	H 	0.22270 0.81040 0.28130 0.00800
H 	H 	0.34550 0.86740 0.25360 0.06200
H 	H 	0.90390 0.16790 0.55830 0.06500
H 	H 	0.99320 0.28150 0.57700 0.05300
H 	H 	0.78610 0.42690 0.55580 0.01900
H 	H 	0.69470 0.31320 0.53700 0.05700
H 	H 	0.67490 0.30630 0.09560 0.08700
H 	H 	0.74550 0.30280 0.88230 0.08500
H 	H 	0.84400 0.19970 0.92920 0.01800
H 	H 	0.77140 0.19970 0.14010 0.01700
H 	H 	0.89570 0.92520 0.41150 0.05800
H 	H 	0.09280 0.08310 0.44940 0.05600
H 	H 	0.70150 0.46330 0.34690 0.01700
H 	H 	0.65550 0.34190 0.29080 0.05900
H 	H 	0.75030 0.23540 0.29080 0.08300
H 	H 	0.94530 0.39340 0.38650 0.07500
H 	H 	0.04450 0.21500 0.35940 0.08800
H 	H 	0.02860 0.30230 0.39190 0.07200
H 	H 	0.08770 0.40440 0.32020 0.09400
H 	H 	0.11630 0.45970 0.20320 0.02400
H 	H 	0.00180 0.26570 0.08100 0.00700
H 	H 	0.97560 0.21400 0.19800 0.14200
H 	H 	0.16810 0.49130 0.10140 0.05300
H 	H 	0.19180 0.54250 0.98230 0.06800
H 	H 	0.03490 0.37610 0.85770 0.07500
H 	H 	0.00160 0.32890 0.97490 0.03100
H 	H 	0.14390 0.55620 0.83460 0.09000
H 	H 	0.08570 0.48690 0.78530 0.08900
H 	H 	0.29940 0.53580 0.88140 0.11200
H 	H 	0.41510 0.36130 0.77650 0.11500
H 	H 	0.27730 0.31040 0.71870 0.00300
H 	H 	0.15450 0.36740 0.74640 0.06300
H 	H 	0.59610 0.66790 0.44170 0.06300
H 	H 	0.50680 0.78150 0.42300 0.04200
H 	H 	0.71390 0.92690 0.44420 0.02300
H 	H 	0.80530 0.81320 0.46300 0.06000
H 	H 	0.82510 0.80630 0.90440 0.01200
H 	H 	0.75450 0.80280 0.11770 0.02100
H 	H 	0.65600 0.69970 0.07080 0.08800
H 	H 	0.72860 0.69970 0.85990 0.08400
H 	H 	0.60430 0.42520 0.58850 0.05600
H 	H 	0.40720 0.58310 0.55060 0.04900
H 	H 	0.20150 0.03670 0.34690 0.00900
H 	H 	0.15550 0.15810 0.29080 0.05600
H 	H 	0.25030 0.26460 0.29080 0.08500
H 	H 	0.44530 0.10660 0.38650 0.06800
H 	H 	0.54450 0.28500 0.35940 0.07000
H 	H 	0.52860 0.19770 0.39190 0.05700
H 	H 	0.58770 0.09560 0.32020 0.06800
H 	H 	0.61630 0.04030 0.20320 0.04900
H 	H 	0.50180 0.23430 0.08100 0.04900
H 	H 	0.47560 0.28600 0.19800 0.07600
H 	H 	0.66810 0.00870 0.10140 0.01600
H 	H 	0.69180 0.95750 0.98230 0.12600
H 	H 	0.53490 0.12390 0.85770 0.10600
H 	H 	0.50160 0.17110 0.97490 0.00900
H 	H 	0.64390 0.94380 0.83460 0.13400
H 	H 	0.58570 0.01310 0.78530 0.11500
H 	H 	0.79940 0.96420 0.88140 0.14200
H 	H 	0.91510 0.13870 0.77650 0.12800
H 	H 	0.77730 0.18960 0.71870 -0.00100
H 	H 	0.65450 0.13260 0.74640 0.07000
H 	H 	0.09610 0.83210 0.44170 0.05800
H 	H 	0.00680 0.71850 0.42300 0.03900
H 	H 	0.21390 0.57310 0.44420 0.02200
H 	H 	0.30530 0.68680 0.46300 0.05500
H 	H 	0.32510 0.69370 0.90440 0.01100
H 	H 	0.25450 0.69720 0.11770 0.01800
H 	H 	0.15600 0.80030 0.07080 0.08500
H 	H 	0.22860 0.80030 0.85990 0.08400
H 	H 	0.10430 0.07480 0.58850 0.05600
H 	H 	0.90720 0.91690 0.55060 0.04500
H 	H 	0.29850 0.53670 0.65310 0.01800
H 	H 	0.34450 0.65810 0.70920 0.05800
H 	H 	0.24970 0.76460 0.70920 0.08600
H 	H 	0.05470 0.60660 0.61350 0.06300
H 	H 	0.95550 0.78500 0.64060 0.06000
H 	H 	0.97140 0.69770 0.60810 0.05000
H 	H 	0.91230 0.59560 0.67980 0.06200
H 	H 	0.88370 0.54030 0.79680 0.06000
H 	H 	0.99820 0.73430 0.91900 0.08200
H 	H 	0.02440 0.78600 0.80200 0.03400
H 	H 	0.83190 0.50870 0.89860 0.01000
H 	H 	0.80820 0.45750 0.01770 0.10000
H 	H 	0.96510 0.62390 0.14230 0.09200
H 	H 	0.99840 0.67110 0.02510 0.03200
H 	H 	0.85610 0.44380 0.16540 0.10800
H 	H 	0.91430 0.51310 0.21470 0.11000
H 	H 	0.70060 0.46420 0.11860 0.10700
H 	H 	0.58490 0.63870 0.22350 0.11600
H 	H 	0.72270 0.68960 0.28130 0.00300
H 	H 	0.84550 0.63260 0.25360 0.06900
H 	H 	0.40390 0.33210 0.55830 0.05800
H 	H 	0.49320 0.21850 0.57700 0.04900
H 	H 	0.28610 0.07310 0.55580 0.01800
H 	H 	0.19470 0.18680 0.53700 0.05100
H 	H 	0.17490 0.19370 0.09560 0.08400
H 	H 	0.24550 0.19720 0.88230 0.08100
H 	H 	0.34400 0.30030 0.92920 0.01500
H 	H 	0.27140 0.30030 0.14010 0.01800
H 	H 	0.39570 0.57480 0.41150 0.05600
H 	H 	0.59280 0.41690 0.44940 0.04900
C 	C 	0.75630 0.92360 0.65460 0.05700
C 	C 	0.78480 0.84950 0.68780 -0.03900
C 	C 	0.72920 0.78690 0.69070 -0.11400
C 	C 	0.63120 0.80460 0.66200 0.21500
C 	C 	0.61350 0.87950 0.63220 -0.12600
C 	C 	0.48960 0.76480 0.65320 -0.07400
C 	C 	0.47110 0.80340 0.72960 0.09100
C 	C 	0.42980 0.87620 0.72840 -0.12100
C 	C 	0.41280 0.90980 0.79930 -0.00600
C 	C 	0.43820 0.87050 0.87200 -0.02000
C 	C 	0.48040 0.79510 0.87120 -0.00600
C 	C 	0.49580 0.76400 0.80060 -0.11600
C 	C 	0.41980 0.90360 0.94770 0.05800
C 	C 	0.36100 0.96830 0.94740 -0.00900
C 	C 	0.34580 0.99820 0.01930 -0.09100
C 	C 	0.38430 0.96480 0.09250 0.07900
C 	C 	0.43940 0.90090 0.09340 -0.07300
C 	C 	0.45840 0.87150 0.02210 -0.09100
C 	C 	0.36470 0.99750 0.16980 -0.11600
C 	C 	0.20350 0.98990 0.15150 -0.10700
C 	C 	0.12650 0.95580 0.16410 0.28100
C 	C 	0.13460 0.88650 0.21350 -0.24800
C 	C 	0.21730 0.85570 0.24740 0.07200
C 	C 	0.29060 0.89020 0.23230 -0.06500
C 	C 	0.73170 0.15560 0.54540 0.38800
C 	C 	0.79330 0.22770 0.54980 -0.07200
C 	C 	0.87940 0.21960 0.55900 -0.02900
C 	C 	0.93280 0.28810 0.56960 0.01600
C 	C 	0.89900 0.36520 0.56950 -0.13300
C 	C 	0.95830 0.43780 0.57810 0.41200
C 	C 	0.81000 0.37470 0.55710 0.01100
C 	C 	0.75530 0.30690 0.54630 -0.03700
C 	C 	0.63350 0.38000 0.95270 0.40600
C 	C 	0.70740 0.28380 0.06150 -0.13900
C 	C 	0.69800 0.31410 0.98280 0.00500
C 	C 	0.75020 0.28200 0.93410 -0.10600
C 	C 	0.80850 0.21980 0.96180 0.12300
C 	C 	0.81450 0.18710 0.03810 -0.20200
C 	C 	0.76550 0.22020 0.08810 0.08900
C 	C 	0.87400 0.11700 0.06480 0.44300
C 	C 	0.98920 0.00840 0.32870 0.32900
C 	C 	0.99480 0.00420 0.41830 -0.03900
C 	C 	0.93830 0.95540 0.44700 -0.01700
C 	C 	0.05520 0.04900 0.46960 -0.05200
C 	C 	0.74370 0.42360 0.34540 0.05800
C 	C 	0.71520 0.34950 0.31220 -0.04300
C 	C 	0.77080 0.28690 0.30930 -0.11100
C 	C 	0.86880 0.30460 0.33800 0.21000
C 	C 	0.88650 0.37950 0.36780 -0.12400
C 	C 	0.01040 0.26480 0.34680 -0.13400
C 	C 	0.02890 0.30340 0.27040 0.14600
C 	C 	0.07020 0.37620 0.27160 -0.16700
C 	C 	0.08720 0.40980 0.20070 0.01700
C 	C 	0.06180 0.37050 0.12800 -0.04000
C 	C 	0.01960 0.29510 0.12880 0.04100
C 	C 	0.00420 0.26400 0.19940 -0.21800
C 	C 	0.08020 0.40360 0.05230 -0.01600
C 	C 	0.13900 0.46830 0.05260 -0.06900
C 	C 	0.15420 0.49820 0.98070 -0.05800
C 	C 	0.11570 0.46480 0.90750 0.10200
C 	C 	0.06060 0.40090 0.90660 -0.12600
C 	C 	0.04160 0.37150 0.97790 0.02500
C 	C 	0.13530 0.49750 0.83020 -0.17100
C 	C 	0.29650 0.48990 0.84850 -0.16000
C 	C 	0.37350 0.45580 0.83590 0.30900
C 	C 	0.36540 0.38650 0.78650 -0.26300
C 	C 	0.28270 0.35570 0.75260 0.08700
C 	C 	0.20940 0.39020 0.76770 -0.07700
C 	C 	0.76830 0.65560 0.45460 0.38300
C 	C 	0.70670 0.72770 0.45020 -0.06800
C 	C 	0.62060 0.71960 0.44100 -0.03400
C 	C 	0.56720 0.78810 0.43040 0.01700
C 	C 	0.60100 0.86520 0.43050 -0.13600
C 	C 	0.54170 0.93780 0.42190 0.41000
C 	C 	0.69000 0.87470 0.44290 0.01400
C 	C 	0.74470 0.80690 0.45370 -0.04000
C 	C 	0.86650 0.88000 0.04730 0.37300
C 	C 	0.79260 0.78380 0.93850 0.10100
C 	C 	0.80200 0.81410 0.01720 -0.18400
C 	C 	0.74980 0.78200 0.06590 0.07500
C 	C 	0.69150 0.71980 0.03820 -0.14300
C 	C 	0.68550 0.68710 0.96190 0.01900
C 	C 	0.73450 0.72020 0.91190 -0.10500
C 	C 	0.62600 0.61700 0.93520 0.36700
C 	C 	0.51080 0.50840 0.67130 0.31800
C 	C 	0.50520 0.50420 0.58170 -0.05500
C 	C 	0.56170 0.45540 0.55300 -0.02400
C 	C 	0.44480 0.54900 0.53040 -0.01600
C 	C 	0.24370 0.07640 0.34540 0.05500
C 	C 	0.21520 0.15050 0.31220 -0.04300
C 	C 	0.27080 0.21310 0.30930 -0.11500
C 	C 	0.36880 0.19540 0.33800 0.21800
C 	C 	0.38650 0.12050 0.36780 -0.13100
C 	C 	0.51040 0.23520 0.34680 -0.05800
C 	C 	0.52890 0.19660 0.27040 0.06100
C 	C 	0.57020 0.12380 0.27160 -0.08800
C 	C 	0.58720 0.09020 0.20070 -0.05700
C 	C 	0.56180 0.12950 0.12800 0.04000
C 	C 	0.51960 0.20490 0.12880 -0.05700
C 	C 	0.50420 0.23600 0.19940 -0.08000
C 	C 	0.58020 0.09640 0.05230 -0.09300
C 	C 	0.63900 0.03170 0.05260 0.02400
C 	C 	0.65420 0.00180 0.98070 -0.18200
C 	C 	0.61570 0.03520 0.90750 0.19000
C 	C 	0.56060 0.09910 0.90660 -0.20400
C 	C 	0.54160 0.12850 0.97790 0.10000
C 	C 	0.63530 0.00250 0.83020 -0.26600
C 	C 	0.79650 0.01010 0.84850 -0.21100
C 	C 	0.87350 0.04420 0.83590 0.33000
C 	C 	0.86540 0.11350 0.78650 -0.28100
C 	C 	0.78270 0.14430 0.75260 0.10400
C 	C 	0.70940 0.10980 0.76770 -0.09300
C 	C 	0.26830 0.84440 0.45460 0.38500
C 	C 	0.20670 0.77230 0.45020 -0.07400
C 	C 	0.12060 0.78040 0.44100 -0.02500
C 	C 	0.06720 0.71190 0.43040 0.00100
C 	C 	0.10100 0.63480 0.43050 -0.11900
C 	C 	0.04170 0.56220 0.42190 0.35400
C 	C 	0.19000 0.62530 0.44290 -0.00100
C 	C 	0.24470 0.69310 0.45370 -0.03200
C 	C 	0.36650 0.62000 0.04730 0.37700
C 	C 	0.29260 0.71620 0.93850 0.10000
C 	C 	0.30200 0.68590 0.01720 -0.18400
C 	C 	0.24980 0.71800 0.06590 0.07400
C 	C 	0.19150 0.78020 0.03820 -0.14200
C 	C 	0.18550 0.81290 0.96190 0.01600
C 	C 	0.23450 0.77980 0.91190 -0.10500
C 	C 	0.12600 0.88300 0.93520 0.36500
C 	C 	0.01080 0.99160 0.67130 0.32800
C 	C 	0.00520 0.99580 0.58170 -0.05300
C 	C 	0.06170 0.04460 0.55300 -0.04500
C 	C 	0.94480 0.95100 0.53040 0.00700
C 	C 	0.25630 0.57640 0.65460 0.05400
C 	C 	0.28480 0.65050 0.68780 -0.03800
C 	C 	0.22920 0.71310 0.69070 -0.11800
C 	C 	0.13120 0.69540 0.66200 0.22100
C 	C 	0.11350 0.62050 0.63220 -0.13200
C 	C 	0.98960 0.73520 0.65320 -0.01000
C 	C 	0.97110 0.69660 0.72960 0.02000
C 	C 	0.92980 0.62380 0.72840 -0.05300
C 	C 	0.91280 0.59020 0.79930 -0.07000
C 	C 	0.93820 0.62950 0.87200 0.05100
C 	C 	0.98040 0.70490 0.87120 -0.09000
C 	C 	0.99580 0.73600 0.80060 0.00000
C 	C 	0.91980 0.59640 0.94770 -0.01400
C 	C 	0.86100 0.53170 0.94740 0.08100
C 	C 	0.84580 0.50180 0.01930 -0.21500
C 	C 	0.88430 0.53520 0.09250 0.16700
C 	C 	0.93940 0.59910 0.09340 -0.15000
C 	C 	0.95840 0.62850 0.02210 -0.01800
C 	C 	0.86470 0.50250 0.16980 -0.21500
C 	C 	0.70350 0.51010 0.15150 -0.16900
C 	C 	0.62650 0.54420 0.16410 0.30600
C 	C 	0.63460 0.61350 0.21350 -0.27100
C 	C 	0.71730 0.64430 0.24740 0.09200
C 	C 	0.79060 0.60980 0.23230 -0.08400
C 	C 	0.23170 0.34440 0.54540 0.39000
C 	C 	0.29330 0.27230 0.54980 -0.08100
C 	C 	0.37940 0.28040 0.55900 -0.01900
C 	C 	0.43280 0.21190 0.56960 -0.00200
C 	C 	0.39900 0.13480 0.56950 -0.11400
C 	C 	0.45830 0.06220 0.57810 0.35000
C 	C 	0.31000 0.12530 0.55710 -0.00600
C 	C 	0.25530 0.19310 0.54630 -0.02800
C 	C 	0.13350 0.12000 0.95270 0.40500
C 	C 	0.20740 0.21620 0.06150 -0.13400
C 	C 	0.19800 0.18590 0.98280 -0.00000
C 	C 	0.25020 0.21800 0.93410 -0.10400
C 	C 	0.30850 0.28020 0.96180 0.11700
C 	C 	0.31450 0.31290 0.03810 -0.20200
C 	C 	0.26550 0.27980 0.08810 0.08500
C 	C 	0.37400 0.38300 0.06480 0.44200
C 	C 	0.48920 0.49160 0.32870 0.31900
C 	C 	0.49480 0.49580 0.41830 -0.05600
C 	C 	0.43830 0.54460 0.44700 -0.02400
C 	C 	0.55520 0.45100 0.46960 -0.01600
N 	N 	0.67840 0.94180 0.62630 -0.22300
N 	N 	0.28300 0.95740 0.18630 -0.05900
N 	N 	0.82160 0.44180 0.37370 -0.22900
N 	N 	0.21700 0.45740 0.81370 -0.04400
N 	N 	0.32160 0.05820 0.37370 -0.23600
N 	N 	0.71700 0.04260 0.81370 -0.02500
N 	N 	0.17840 0.55820 0.62630 -0.22900
N 	N 	0.78300 0.54260 0.18630 -0.03800
O 	O 	0.75860 0.08640 0.55660 -0.44300
O 	O 	0.65510 0.16550 0.53940 -0.43400
O 	O 	0.03910 0.42700 0.61260 -0.47300
O 	O 	0.92980 0.50510 0.55030 -0.49000
O 	O 	0.91520 0.08950 0.01631 -0.48700
O 	O 	0.87840 0.08897 0.13438 -0.49500
O 	O 	0.62330 0.39880 0.87924 -0.46500
O 	O 	0.59510 0.41210 0.00100 -0.48700
O 	O 	0.03360 0.05930 0.30050 -0.36600
O 	O 	0.94220 0.95730 0.28428 -0.41900
O 	O 	0.05069 0.98789 0.12882 -0.55200
O 	O 	0.58520 0.74540 0.66370 -0.23100
O 	O 	0.74140 0.58640 0.44340 -0.43600
O 	O 	0.84490 0.66550 0.46060 -0.42800
O 	O 	0.46090 0.92700 0.38740 -0.44900
O 	O 	0.57020 0.00510 0.44970 -0.51300
O 	O 	0.58480 0.58950 0.98369 -0.43600
O 	O 	0.62160 0.58897 0.86562 -0.46900
O 	O 	0.87670 0.89880 0.12076 -0.45700
O 	O 	0.90490 0.91210 0.99900 -0.40700
O 	O 	0.46640 0.55930 0.69950 -0.33700
O 	O 	0.55780 0.45730 0.71572 -0.43200
O 	O 	0.44931 0.48789 0.87118 -0.54900
O 	O 	0.91480 0.24540 0.33630 -0.20700
O 	O 	0.24140 0.91360 0.44340 -0.42900
O 	O 	0.34490 0.83450 0.46060 -0.43200
O 	O 	0.96090 0.57300 0.38740 -0.42600
O 	O 	0.07020 0.49490 0.44970 -0.49000
O 	O 	0.08480 0.91050 0.98369 -0.43400
O 	O 	0.12160 0.91103 0.86562 -0.46100
O 	O 	0.37670 0.60120 0.12076 -0.46500
O 	O 	0.40490 0.58790 0.99900 -0.42100
O 	O 	0.96640 0.94070 0.69950 -0.31800
O 	O 	0.05780 0.04270 0.71572 -0.46000
O 	O 	0.94931 0.01211 0.87118 -0.54900
O 	O 	0.41480 0.25460 0.33630 -0.23300
O 	O 	0.25860 0.41360 0.55660 -0.43900
O 	O 	0.15510 0.33450 0.53940 -0.44000
O 	O 	0.53910 0.07300 0.61260 -0.44700
O 	O 	0.42980 0.99490 0.55030 -0.46300
O 	O 	0.41520 0.41050 0.01631 -0.49300
O 	O 	0.37840 0.41103 0.13438 -0.49200
O 	O 	0.12330 0.10120 0.87924 -0.47500
O 	O 	0.09510 0.08790 0.00100 -0.49500
O 	O 	0.53360 0.44070 0.30050 -0.33600
O 	O 	0.44220 0.54270 0.28428 -0.43300
O 	O 	0.55069 0.51211 0.12882 -0.56300
O 	O 	0.08520 0.75460 0.66370 -0.25200
