data_crystal

_cell_length_a 7.84630
_cell_length_b 18.31390
_cell_length_c 19.37600
_cell_angle_alpha 90.00000
_cell_angle_beta  90.00000
_cell_angle_gamma 90.00000

_symmetry_space_group_name_	'P 1'
_symmetry_space_group_name_H-M	'P 1'

loop_
_symmetry_equiv_pos_as_xyz
  x,y,z

loop_
_atom_site_label
_atom_site_type_symbol
_atom_site_fract_x
_atom_site_fract_y
_atom_site_fract_z
_atom_site_charge
Zn	Zn	0.52538 0.50814 0.49999 1.20700
Zn	Zn	0.47462 0.49186 0.99999 1.18300
Zn	Zn	0.47462 0.00814 0.49999 1.20700
Zn	Zn	0.52538 0.99186 0.99999 1.18300
H 	H 	0.63540 0.72530 0.48080 0.00700
H 	H 	0.86440 0.64800 0.45860 0.10200
H 	H 	0.18660 0.81950 0.47520 0.11100
H 	H 	0.95490 0.89740 0.49060 0.00400
H 	H 	0.04370 0.56120 0.53420 0.24200
H 	H 	0.09510 0.62950 0.57990 0.23500
H 	H 	0.21210 0.55900 0.57930 0.22100
H 	H 	0.35920 0.79250 0.37280 0.23900
H 	H 	0.20670 0.75370 0.33370 0.23000
H 	H 	0.39750 0.73310 0.31540 0.22400
H 	H 	0.27370 0.56510 0.77110 0.00100
H 	H 	0.05540 0.57650 0.68990 0.08300
H 	H 	0.71880 0.49370 0.82570 0.10900
H 	H 	0.93750 0.48500 0.90790 -0.00500
H 	H 	0.75360 0.40640 0.58750 0.23100
H 	H 	0.82600 0.40490 0.66380 0.24000
H 	H 	0.92710 0.44660 0.60510 0.23600
H 	H 	0.52790 0.69330 0.73010 0.22400
H 	H 	0.71980 0.68070 0.75250 0.23000
H 	H 	0.57210 0.63510 0.78790 0.24000
H 	H 	0.36460 0.27470 0.98080 -0.02800
H 	H 	0.13560 0.35200 0.95860 0.10500
H 	H 	0.81340 0.18050 0.97520 0.10500
H 	H 	0.04510 0.10260 0.99060 -0.03700
H 	H 	0.95630 0.43880 0.03420 0.22400
H 	H 	0.90490 0.37050 0.07990 0.20700
H 	H 	0.78790 0.44100 0.07930 0.18700
H 	H 	0.64080 0.20750 0.87280 0.22800
H 	H 	0.79330 0.24630 0.83370 0.22400
H 	H 	0.60250 0.26690 0.81540 0.21700
H 	H 	0.72630 0.43490 0.27110 0.00400
H 	H 	0.94460 0.42350 0.18990 0.08700
H 	H 	0.28120 0.50630 0.32570 0.11000
H 	H 	0.06250 0.51500 0.40790 0.00500
H 	H 	0.24640 0.59360 0.08750 0.26300
H 	H 	0.17400 0.59510 0.16380 0.25800
H 	H 	0.07290 0.55340 0.10510 0.26600
H 	H 	0.47210 0.30670 0.23010 0.23200
H 	H 	0.28020 0.31930 0.25250 0.23800
H 	H 	0.42790 0.36490 0.28790 0.24600
H 	H 	0.36460 0.22530 0.48080 0.00700
H 	H 	0.13560 0.14800 0.45860 0.10200
H 	H 	0.81340 0.31950 0.47520 0.11100
H 	H 	0.04510 0.39740 0.49060 0.00400
H 	H 	0.95630 0.06120 0.53420 0.24200
H 	H 	0.90490 0.12950 0.57990 0.23500
H 	H 	0.78790 0.05900 0.57930 0.22100
H 	H 	0.64080 0.29250 0.37280 0.23900
H 	H 	0.79330 0.25370 0.33370 0.23000
H 	H 	0.60250 0.23310 0.31540 0.22300
H 	H 	0.72630 0.06510 0.77110 0.00100
H 	H 	0.94460 0.07650 0.68990 0.08300
H 	H 	0.28120 0.99370 0.82570 0.11100
H 	H 	0.06250 0.98500 0.90790 -0.00500
H 	H 	0.24640 0.90640 0.58750 0.23000
H 	H 	0.17400 0.90490 0.66380 0.24000
H 	H 	0.07290 0.94660 0.60510 0.23600
H 	H 	0.47210 0.19330 0.73010 0.22400
H 	H 	0.28020 0.18070 0.75250 0.23000
H 	H 	0.42790 0.13510 0.78790 0.24000
H 	H 	0.63540 0.77470 0.98080 -0.02900
H 	H 	0.86440 0.85200 0.95860 0.10600
H 	H 	0.18660 0.68050 0.97520 0.10500
H 	H 	0.95490 0.60260 0.99060 -0.03800
H 	H 	0.04370 0.93880 0.03420 0.22500
H 	H 	0.09510 0.87050 0.07990 0.20800
H 	H 	0.21210 0.94100 0.07930 0.18800
H 	H 	0.35920 0.70750 0.87280 0.22800
H 	H 	0.20670 0.74630 0.83370 0.22400
H 	H 	0.39750 0.76690 0.81540 0.21700
H 	H 	0.27370 0.93490 0.27110 0.00300
H 	H 	0.05540 0.92350 0.18990 0.08800
H 	H 	0.71880 0.00630 0.32570 0.10800
H 	H 	0.93750 0.01500 0.40790 0.00200
H 	H 	0.75360 0.09360 0.08750 0.26400
H 	H 	0.82600 0.09510 0.16380 0.25900
H 	H 	0.92710 0.05340 0.10510 0.26600
H 	H 	0.52790 0.80670 0.23010 0.23300
H 	H 	0.71980 0.81930 0.25250 0.23800
H 	H 	0.57210 0.86490 0.28790 0.24600
C 	C 	0.62270 0.86943 0.50110 0.35300
C 	C 	0.77200 0.81900 0.48783 -0.15700
C 	C 	0.74650 0.74446 0.47862 0.09100
C 	C 	0.88260 0.69802 0.46632 -0.20900
C 	C 	0.04680 0.72689 0.46567 0.17800
C 	C 	0.07500 0.80074 0.47537 -0.21500
C 	C 	0.93700 0.84690 0.48539 0.09500
C 	C 	0.13830 0.58986 0.55166 -0.73000
C 	C 	0.23710 0.62055 0.49244 0.29000
C 	C 	0.31780 0.68862 0.40600 0.28900
C 	C 	0.32060 0.74711 0.35230 -0.70600
C 	C 	0.27340 0.51722 0.89765 0.33800
C 	C 	0.12650 0.52338 0.84699 -0.15800
C 	C 	0.16210 0.55060 0.78234 0.08600
C 	C 	0.03210 0.55680 0.73363 -0.20300
C 	C 	0.86960 0.53388 0.74959 0.17400
C 	C 	0.83070 0.50779 0.81451 -0.21100
C 	C 	0.96180 0.50271 0.86340 0.10000
C 	C 	0.81470 0.43406 0.62233 -0.73900
C 	C 	0.71910 0.50209 0.63843 0.28300
C 	C 	0.62840 0.60007 0.69155 0.28900
C 	C 	0.61050 0.65720 0.74510 -0.71400
C 	C 	0.37730 0.13057 0.00110 0.44100
C 	C 	0.22800 0.18100 0.98783 -0.26600
C 	C 	0.25350 0.25554 0.97862 0.14000
C 	C 	0.11740 0.30198 0.96632 -0.25100
C 	C 	0.95320 0.27311 0.96567 0.18500
C 	C 	0.92500 0.19926 0.97537 -0.25300
C 	C 	0.06300 0.15310 0.98539 0.14200
C 	C 	0.86170 0.41014 0.05166 -0.56100
C 	C 	0.76290 0.37945 0.99244 0.18800
C 	C 	0.68220 0.31138 0.90600 0.28100
C 	C 	0.67940 0.25289 0.85230 -0.69200
C 	C 	0.72660 0.48278 0.39765 0.33100
C 	C 	0.87350 0.47662 0.34699 -0.15000
C 	C 	0.83790 0.44940 0.28234 0.08300
C 	C 	0.96790 0.44320 0.23363 -0.20100
C 	C 	0.13040 0.46612 0.24959 0.17500
C 	C 	0.16930 0.49221 0.31451 -0.20600
C 	C 	0.03820 0.49729 0.36340 0.09400
C 	C 	0.18530 0.56594 0.12233 -0.78300
C 	C 	0.28090 0.49791 0.13843 0.30300
C 	C 	0.37160 0.39993 0.19155 0.29800
C 	C 	0.38950 0.34280 0.24510 -0.72700
C 	C 	0.37730 0.36943 0.50110 0.35300
C 	C 	0.22800 0.31900 0.48783 -0.15700
C 	C 	0.25350 0.24446 0.47862 0.09100
C 	C 	0.11740 0.19802 0.46632 -0.20900
C 	C 	0.95320 0.22689 0.46567 0.17800
C 	C 	0.92500 0.30074 0.47537 -0.21400
C 	C 	0.06300 0.34690 0.48539 0.09500
C 	C 	0.86170 0.08986 0.55166 -0.72900
C 	C 	0.76290 0.12055 0.49244 0.28900
C 	C 	0.68220 0.18862 0.40600 0.28900
C 	C 	0.67940 0.24711 0.35230 -0.70600
C 	C 	0.72660 0.01722 0.89765 0.33700
C 	C 	0.87350 0.02338 0.84699 -0.15900
C 	C 	0.83790 0.05060 0.78234 0.08700
C 	C 	0.96790 0.05680 0.73363 -0.20500
C 	C 	0.13040 0.03388 0.74959 0.17600
C 	C 	0.16930 0.00779 0.81451 -0.21400
C 	C 	0.03820 0.00271 0.86340 0.10200
C 	C 	0.18530 0.93406 0.62233 -0.73700
C 	C 	0.28090 0.00209 0.63843 0.28200
C 	C 	0.37160 0.10007 0.69155 0.28900
C 	C 	0.38950 0.15720 0.74510 -0.71500
C 	C 	0.62270 0.63057 0.00110 0.44200
C 	C 	0.77200 0.68100 0.98783 -0.26800
C 	C 	0.74650 0.75554 0.97862 0.14100
C 	C 	0.88260 0.80198 0.96632 -0.25100
C 	C 	0.04680 0.77311 0.96567 0.18500
C 	C 	0.07500 0.69926 0.97537 -0.25400
C 	C 	0.93700 0.65310 0.98539 0.14200
C 	C 	0.13830 0.91014 0.05166 -0.56100
C 	C 	0.23710 0.87945 0.99244 0.18800
C 	C 	0.31780 0.81138 0.90600 0.28100
C 	C 	0.32060 0.75289 0.85230 -0.69200
C 	C 	0.27340 0.98278 0.39765 0.33500
C 	C 	0.12650 0.97662 0.34699 -0.15300
C 	C 	0.16210 0.94940 0.28234 0.08600
C 	C 	0.03210 0.94320 0.23363 -0.20300
C 	C 	0.86960 0.96612 0.24959 0.17600
C 	C 	0.83070 0.99221 0.31451 -0.20500
C 	C 	0.96180 0.99729 0.36340 0.10100
C 	C 	0.81470 0.06594 0.12233 -0.78900
C 	C 	0.71910 0.99791 0.13843 0.30700
C 	C 	0.62840 0.89993 0.19155 0.29800
C 	C 	0.61050 0.84280 0.24510 -0.72800
N 	N 	0.38340 0.59531 0.46898 -0.26700
N 	N 	0.43400 0.63825 0.41322 -0.15100
N 	N 	0.19110 0.67955 0.45407 -0.23200
N 	N 	0.60210 0.53260 0.60012 -0.27100
N 	N 	0.54370 0.59536 0.63388 -0.16100
N 	N 	0.73970 0.54243 0.69763 -0.23300
N 	N 	0.61660 0.40469 0.96898 -0.26400
N 	N 	0.56600 0.36175 0.91322 -0.15200
N 	N 	0.80890 0.32045 0.95407 -0.22300
N 	N 	0.39790 0.46740 0.10012 -0.25600
N 	N 	0.45630 0.40464 0.13388 -0.14900
N 	N 	0.26030 0.45757 0.19763 -0.23600
N 	N 	0.61660 0.09531 0.46898 -0.26700
N 	N 	0.56600 0.13825 0.41322 -0.15100
N 	N 	0.80890 0.17955 0.45407 -0.23200
N 	N 	0.39790 0.03260 0.60012 -0.27100
N 	N 	0.45630 0.09536 0.63388 -0.16100
N 	N 	0.26030 0.04243 0.69763 -0.23300
N 	N 	0.38340 0.90469 0.96898 -0.26400
N 	N 	0.43400 0.86175 0.91322 -0.15200
N 	N 	0.19110 0.82045 0.95407 -0.22300
N 	N 	0.60210 0.96740 0.10012 -0.25600
N 	N 	0.54370 0.90464 0.13388 -0.14900
N 	N 	0.73970 0.95757 0.19763 -0.23700
O 	O 	0.65928 0.93721 0.50596 -0.47200
O 	O 	0.47680 0.84394 0.50720 -0.33300
O 	O 	0.24000 0.49379 0.95815 -0.48400
O 	O 	0.41970 0.53342 0.87939 -0.37700
O 	O 	0.34072 0.06279 0.00596 -0.44500
O 	O 	0.52320 0.15606 0.00720 -0.30700
O 	O 	0.76000 0.50621 0.45815 -0.45600
O 	O 	0.58030 0.46658 0.37939 -0.36300
O 	O 	0.34072 0.43721 0.50596 -0.47300
O 	O 	0.52320 0.34394 0.50720 -0.33400
O 	O 	0.76000 0.99379 0.95815 -0.48300
O 	O 	0.58030 0.03342 0.87939 -0.37700
O 	O 	0.65928 0.56279 0.00596 -0.44300
O 	O 	0.47680 0.65606 0.00720 -0.30700
O 	O 	0.24000 0.00621 0.45815 -0.45800
O 	O 	0.41970 0.96658 0.37939 -0.36300
