data_crystal

_cell_length_a 10.08610
_cell_length_b 10.25270
_cell_length_c 16.40130
_cell_angle_alpha 90.00000
_cell_angle_beta  95.47800
_cell_angle_gamma 90.00000

_symmetry_space_group_name_	'P 1'
_symmetry_space_group_name_H-M	'P 1'

loop_
_symmetry_equiv_pos_as_xyz
  x,y,z

loop_
_atom_site_label
_atom_site_type_symbol
_atom_site_fract_x
_atom_site_fract_y
_atom_site_fract_z
_atom_site_charge
Zn	Zn	0.22790 0.76087 0.07645 1.16300
Zn	Zn	0.77210 0.26087 0.42355 1.17700
Zn	Zn	0.77210 0.23913 0.92355 1.18800
Zn	Zn	0.22790 0.73913 0.57645 1.17300
Zn	Zn	-0.00000 0.00000 -0.00000 1.11400
Zn	Zn	0.00000 0.50000 0.50000 1.15700
H 	H 	0.67930 0.77710 0.07770 0.01900
H 	H 	0.95510 0.64380 0.25010 0.04400
H 	H 	0.56870 0.56360 0.26430 0.03100
H 	H 	0.32070 0.27710 0.42230 0.03600
H 	H 	0.04490 0.14380 0.24990 -0.01100
H 	H 	0.43130 0.06360 0.23570 0.02400
H 	H 	0.32070 0.22290 0.92230 0.04800
H 	H 	0.04490 0.35620 0.74990 -0.00400
H 	H 	0.43130 0.43640 0.73570 0.04200
H 	H 	0.67930 0.72290 0.57770 0.02900
H 	H 	0.95510 0.85620 0.75010 0.04900
H 	H 	0.56870 0.93640 0.76430 0.04800
C 	C 	0.45770 0.69260 0.13440 0.33100
C 	C 	0.94110 0.77940 0.11062 0.54000
C 	C 	0.80230 0.52180 0.34925 0.41400
C 	C 	0.60100 0.67400 0.16658 -0.13500
C 	C 	0.70130 0.73070 0.12582 0.09100
C 	C 	0.83460 0.71870 0.15659 -0.18500
C 	C 	0.86650 0.65090 0.22883 0.10700
C 	C 	0.76720 0.59340 0.26988 -0.14900
C 	C 	0.63500 0.60400 0.23775 0.07800
C 	C 	0.54230 0.19260 0.36560 0.31400
C 	C 	0.05890 0.27940 0.38938 0.26800
C 	C 	0.19770 0.02180 0.15075 0.33300
C 	C 	0.39900 0.17400 0.33342 -0.11600
C 	C 	0.29870 0.23070 0.37418 0.03400
C 	C 	0.16540 0.21870 0.34341 -0.13300
C 	C 	0.13350 0.15090 0.27117 0.04200
C 	C 	0.23280 0.09340 0.23012 -0.14300
C 	C 	0.36500 0.10400 0.26225 0.04300
C 	C 	0.54230 0.30740 0.86560 0.31300
C 	C 	0.05890 0.22060 0.88938 0.26900
C 	C 	0.19770 0.47820 0.65075 0.41400
C 	C 	0.39900 0.32600 0.83342 -0.10200
C 	C 	0.29870 0.26930 0.87418 0.03400
C 	C 	0.16540 0.28130 0.84341 -0.12300
C 	C 	0.13350 0.34910 0.77117 0.05200
C 	C 	0.23280 0.40660 0.73012 -0.14700
C 	C 	0.36500 0.39600 0.76225 0.05300
C 	C 	0.45770 0.80740 0.63440 0.32900
C 	C 	0.94110 0.72060 0.61062 0.53600
C 	C 	0.80230 0.97820 0.84925 0.48000
C 	C 	0.60100 0.82600 0.66658 -0.12100
C 	C 	0.70130 0.76930 0.62582 0.08900
C 	C 	0.83460 0.78130 0.65659 -0.17600
C 	C 	0.86650 0.84910 0.72883 0.11300
C 	C 	0.76720 0.90660 0.76988 -0.15100
C 	C 	0.63500 0.89600 0.73775 0.08500
O 	O 	0.36732 0.66443 0.17817 -0.38400
O 	O 	0.43343 0.73831 0.06306 -0.44700
O 	O 	0.90210 0.85529 0.05355 -0.50300
O 	O 	0.05972 0.74724 0.13280 -0.61400
O 	O 	0.90970 0.55340 0.38821 -0.45400
O 	O 	0.72093 0.43764 0.36846 -0.46300
O 	O 	0.63268 0.16443 0.32183 -0.37900
O 	O 	0.56657 0.23831 0.43694 -0.42900
O 	O 	0.09790 0.35529 0.44645 -0.50300
O 	O 	0.94028 0.24724 0.36720 -0.40300
O 	O 	0.09030 0.05340 0.11179 -0.55000
O 	O 	0.27907 0.93764 0.13154 -0.41500
O 	O 	0.63268 0.33557 0.82183 -0.36000
O 	O 	0.56657 0.26169 0.93694 -0.40100
O 	O 	0.09790 0.14471 0.94645 -0.47800
O 	O 	0.94028 0.25276 0.86720 -0.39500
O 	O 	0.09030 0.44660 0.61179 -0.53500
O 	O 	0.27907 0.56236 0.63154 -0.47300
O 	O 	0.36732 0.83557 0.67817 -0.36500
O 	O 	0.43343 0.76169 0.56306 -0.42100
O 	O 	0.90210 0.64471 0.55355 -0.49700
O 	O 	0.05972 0.75276 0.63280 -0.60300
O 	O 	0.90970 0.94660 0.88821 -0.42700
O 	O 	0.72093 0.06236 0.86846 -0.50900
