data_crystal

_cell_length_a 17.05440
_cell_length_b 17.05440
_cell_length_c 17.05440
_cell_angle_alpha 90.00000
_cell_angle_beta  90.00000
_cell_angle_gamma 90.00000

_symmetry_space_group_name_	'P 1'
_symmetry_space_group_name_H-M	'P 1'

loop_
_symmetry_equiv_pos_as_xyz
  x,y,z

loop_
_atom_site_label
_atom_site_type_symbol
_atom_site_fract_x
_atom_site_fract_y
_atom_site_fract_z
_atom_site_charge
Zn	Zn	0.00000 0.50000 0.75000 1.14100
Zn	Zn	0.00000 0.50000 0.25000 1.13900
Zn	Zn	0.50000 0.00000 0.25000 1.13900
Zn	Zn	0.50000 0.00000 0.75000 1.14100
Zn	Zn	0.50000 0.75000 -0.00000 1.14100
Zn	Zn	0.50000 0.25000 -0.00000 1.13900
Zn	Zn	0.75000 0.50000 -0.00000 1.14100
Zn	Zn	0.25000 0.50000 -0.00000 1.13900
Zn	Zn	0.75000 0.00000 0.50000 1.14100
Zn	Zn	0.25000 0.00000 0.50000 1.13900
Zn	Zn	0.00000 0.75000 0.50000 1.14100
Zn	Zn	0.00000 0.25000 0.50000 1.13900
H 	H 	0.12540 0.36240 0.77490 -0.01300
H 	H 	0.12540 0.63760 0.22510 -0.01600
H 	H 	0.87460 0.63760 0.77490 0.01100
H 	H 	0.87460 0.36240 0.22510 -0.00100
H 	H 	0.36240 0.87460 0.22510 -0.00100
H 	H 	0.63760 0.87460 0.77490 0.01100
H 	H 	0.63760 0.12540 0.22510 -0.01600
H 	H 	0.36240 0.12540 0.77490 -0.01300
H 	H 	0.36240 0.77490 0.12540 -0.01300
H 	H 	0.63760 0.22510 0.12540 -0.01600
H 	H 	0.36240 0.22510 0.87460 -0.00100
H 	H 	0.63760 0.77490 0.87460 0.01100
H 	H 	0.77490 0.63760 0.87460 0.01100
H 	H 	0.77490 0.36240 0.12540 -0.01300
H 	H 	0.22510 0.36240 0.87460 -0.00100
H 	H 	0.22510 0.63760 0.12540 -0.01600
H 	H 	0.77490 0.12540 0.36240 -0.01300
H 	H 	0.22510 0.12540 0.63760 -0.01600
H 	H 	0.22510 0.87460 0.36240 -0.00100
H 	H 	0.77490 0.87460 0.63760 0.01100
H 	H 	0.12540 0.77490 0.36240 -0.01300
H 	H 	0.12540 0.22510 0.63760 -0.01600
H 	H 	0.87460 0.77490 0.63760 0.01100
H 	H 	0.87460 0.22510 0.36240 -0.00100
H 	H 	0.62540 0.86240 0.27490 -0.00400
H 	H 	0.62540 0.13760 0.72510 -0.00400
H 	H 	0.37460 0.13760 0.27490 -0.00700
H 	H 	0.37460 0.86240 0.72510 -0.00500
H 	H 	0.86240 0.37460 0.72510 -0.00500
H 	H 	0.13760 0.37460 0.27490 -0.00700
H 	H 	0.13760 0.62540 0.72510 -0.00400
H 	H 	0.86240 0.62540 0.27490 -0.00400
H 	H 	0.86240 0.27490 0.62540 -0.00400
H 	H 	0.13760 0.72510 0.62540 -0.00400
H 	H 	0.86240 0.72510 0.37460 -0.00500
H 	H 	0.13760 0.27490 0.37460 -0.00700
H 	H 	0.27490 0.13760 0.37460 -0.00700
H 	H 	0.27490 0.86240 0.62540 -0.00400
H 	H 	0.72510 0.86240 0.37460 -0.00500
H 	H 	0.72510 0.13760 0.62540 -0.00400
H 	H 	0.27490 0.62540 0.86240 -0.00400
H 	H 	0.72510 0.62540 0.13760 -0.00400
H 	H 	0.72510 0.37460 0.86240 -0.00500
H 	H 	0.27490 0.37460 0.13760 -0.00700
H 	H 	0.62540 0.27490 0.86240 -0.00400
H 	H 	0.62540 0.72510 0.13760 -0.00400
H 	H 	0.37460 0.27490 0.13760 -0.00700
H 	H 	0.37460 0.72510 0.86240 -0.00500
H 	H 	0.03740 0.58900 0.89870 0.20300
H 	H 	0.03740 0.41100 0.10130 0.10900
H 	H 	0.96260 0.41100 0.89870 0.31600
H 	H 	0.96260 0.58900 0.10130 0.24200
H 	H 	0.58900 0.96260 0.10130 0.24200
H 	H 	0.41100 0.96260 0.89870 0.31600
H 	H 	0.41100 0.03740 0.10130 0.10900
H 	H 	0.58900 0.03740 0.89870 0.20300
H 	H 	0.58900 0.89870 0.03740 0.20300
H 	H 	0.41100 0.10130 0.03740 0.10900
H 	H 	0.58900 0.10130 0.96260 0.24200
H 	H 	0.41100 0.89870 0.96260 0.31600
H 	H 	0.89870 0.41100 0.96260 0.31600
H 	H 	0.89870 0.58900 0.03740 0.20300
H 	H 	0.10130 0.58900 0.96260 0.24200
H 	H 	0.10130 0.41100 0.03740 0.10900
H 	H 	0.89870 0.03740 0.58900 0.20300
H 	H 	0.10130 0.03740 0.41100 0.10900
H 	H 	0.10130 0.96260 0.58900 0.24200
H 	H 	0.89870 0.96260 0.41100 0.31600
H 	H 	0.03740 0.89870 0.58900 0.20300
H 	H 	0.03740 0.10130 0.41100 0.10900
H 	H 	0.96260 0.89870 0.41100 0.31600
H 	H 	0.96260 0.10130 0.58900 0.24200
H 	H 	0.53740 0.08900 0.39870 0.13300
H 	H 	0.53740 0.91100 0.60130 0.30200
H 	H 	0.46260 0.91100 0.39870 0.30100
H 	H 	0.46260 0.08900 0.60130 0.13200
H 	H 	0.08900 0.46260 0.60130 0.13200
H 	H 	0.91100 0.46260 0.39870 0.30100
H 	H 	0.91100 0.53740 0.60130 0.30200
H 	H 	0.08900 0.53740 0.39870 0.13300
H 	H 	0.08900 0.39870 0.53740 0.13300
H 	H 	0.91100 0.60130 0.53740 0.30200
H 	H 	0.08900 0.60130 0.46260 0.13200
H 	H 	0.91100 0.39870 0.46260 0.30100
H 	H 	0.39870 0.91100 0.46260 0.30100
H 	H 	0.39870 0.08900 0.53740 0.13300
H 	H 	0.60130 0.08900 0.46260 0.13200
H 	H 	0.60130 0.91100 0.53740 0.30200
H 	H 	0.39870 0.53740 0.08900 0.13300
H 	H 	0.60130 0.53740 0.91100 0.30200
H 	H 	0.60130 0.46260 0.08900 0.13200
H 	H 	0.39870 0.46260 0.91100 0.30100
H 	H 	0.53740 0.39870 0.08900 0.13300
H 	H 	0.53740 0.60130 0.91100 0.30200
H 	H 	0.46260 0.39870 0.91100 0.30100
H 	H 	0.46260 0.60130 0.08900 0.13200
H 	H 	0.11920 0.62750 0.88080 0.23700
H 	H 	0.11920 0.37250 0.11920 0.15200
H 	H 	0.88080 0.37250 0.88080 0.29800
H 	H 	0.88080 0.62750 0.11920 0.23700
H 	H 	0.62750 0.88080 0.11920 0.23700
H 	H 	0.37250 0.88080 0.88080 0.29800
H 	H 	0.37250 0.11920 0.11920 0.15200
H 	H 	0.62750 0.11920 0.88080 0.23700
H 	H 	0.88080 0.11920 0.62750 0.23700
H 	H 	0.11920 0.11920 0.37250 0.15200
H 	H 	0.11920 0.88080 0.62750 0.23700
H 	H 	0.88080 0.88080 0.37250 0.29800
H 	H 	0.61920 0.12750 0.38080 0.15700
H 	H 	0.61920 0.87250 0.61920 0.30500
H 	H 	0.38080 0.87250 0.38080 0.30300
H 	H 	0.38080 0.12750 0.61920 0.15700
H 	H 	0.12750 0.38080 0.61920 0.15700
H 	H 	0.87250 0.38080 0.38080 0.30300
H 	H 	0.87250 0.61920 0.61920 0.30500
H 	H 	0.12750 0.61920 0.38080 0.15700
H 	H 	0.38080 0.61920 0.12750 0.15700
H 	H 	0.61920 0.61920 0.87250 0.30500
H 	H 	0.61920 0.38080 0.12750 0.15700
H 	H 	0.38080 0.38080 0.87250 0.30300
C 	C 	0.13370 0.40200 0.81140 -0.03600
C 	C 	0.13370 0.59800 0.18860 -0.03800
C 	C 	0.86630 0.59800 0.81140 -0.01300
C 	C 	0.86630 0.40200 0.18860 -0.01800
C 	C 	0.40200 0.86630 0.18860 -0.01800
C 	C 	0.59800 0.86630 0.81140 -0.01300
C 	C 	0.59800 0.13370 0.18860 -0.03800
C 	C 	0.40200 0.13370 0.81140 -0.03600
C 	C 	0.40200 0.81140 0.13370 -0.03600
C 	C 	0.59800 0.18860 0.13370 -0.03800
C 	C 	0.40200 0.18860 0.86630 -0.01800
C 	C 	0.59800 0.81140 0.86630 -0.01300
C 	C 	0.81140 0.59800 0.86630 -0.01300
C 	C 	0.81140 0.40200 0.13370 -0.03600
C 	C 	0.18860 0.40200 0.86630 -0.01800
C 	C 	0.18860 0.59800 0.13370 -0.03800
C 	C 	0.81140 0.13370 0.40200 -0.03600
C 	C 	0.18860 0.13370 0.59800 -0.03800
C 	C 	0.18860 0.86630 0.40200 -0.01800
C 	C 	0.81140 0.86630 0.59800 -0.01300
C 	C 	0.13370 0.81140 0.40200 -0.03600
C 	C 	0.13370 0.18860 0.59800 -0.03800
C 	C 	0.86630 0.81140 0.59800 -0.01300
C 	C 	0.86630 0.18860 0.40200 -0.01800
C 	C 	0.63370 0.90200 0.31140 -0.01600
C 	C 	0.63370 0.09800 0.68860 -0.03400
C 	C 	0.36630 0.09800 0.31140 -0.03900
C 	C 	0.36630 0.90200 0.68860 -0.01600
C 	C 	0.90200 0.36630 0.68860 -0.01600
C 	C 	0.09800 0.36630 0.31140 -0.03900
C 	C 	0.09800 0.63370 0.68860 -0.03400
C 	C 	0.90200 0.63370 0.31140 -0.01600
C 	C 	0.90200 0.31140 0.63370 -0.01600
C 	C 	0.09800 0.68860 0.63370 -0.03400
C 	C 	0.90200 0.68860 0.36630 -0.01600
C 	C 	0.09800 0.31140 0.36630 -0.03900
C 	C 	0.31140 0.09800 0.36630 -0.03900
C 	C 	0.31140 0.90200 0.63370 -0.01600
C 	C 	0.68860 0.90200 0.36630 -0.01600
C 	C 	0.68860 0.09800 0.63370 -0.03400
C 	C 	0.31140 0.63370 0.90200 -0.01600
C 	C 	0.68860 0.63370 0.09800 -0.03400
C 	C 	0.68860 0.36630 0.90200 -0.01600
C 	C 	0.31140 0.36630 0.09800 -0.03900
C 	C 	0.63370 0.31140 0.90200 -0.01600
C 	C 	0.63370 0.68860 0.09800 -0.03400
C 	C 	0.36630 0.31140 0.09800 -0.03900
C 	C 	0.36630 0.68860 0.90200 -0.01600
C 	C 	0.12253 0.50720 0.87747 0.26800
C 	C 	0.12253 0.49280 0.12253 0.19200
C 	C 	0.87747 0.49280 0.87747 0.33400
C 	C 	0.87747 0.50720 0.12253 0.26800
C 	C 	0.50720 0.87747 0.12253 0.26800
C 	C 	0.49280 0.87747 0.87747 0.33400
C 	C 	0.49280 0.12253 0.12253 0.19200
C 	C 	0.50720 0.12253 0.87747 0.26800
C 	C 	0.87747 0.12253 0.50720 0.26800
C 	C 	0.12253 0.12253 0.49280 0.19200
C 	C 	0.12253 0.87747 0.50720 0.26800
C 	C 	0.87747 0.87747 0.49280 0.33400
C 	C 	0.62253 0.00720 0.37747 0.02900
C 	C 	0.62253 0.99280 0.62253 0.50400
C 	C 	0.37747 0.99280 0.37747 0.50100
C 	C 	0.37747 0.00720 0.62253 0.02900
C 	C 	0.00720 0.37747 0.62253 0.02900
C 	C 	0.99280 0.37747 0.37747 0.50100
C 	C 	0.99280 0.62253 0.62253 0.50400
C 	C 	0.00720 0.62253 0.37747 0.02900
C 	C 	0.37747 0.62253 0.00720 0.02900
C 	C 	0.62253 0.62253 0.99280 0.50400
C 	C 	0.62253 0.37747 0.00720 0.02900
C 	C 	0.37747 0.37747 0.99280 0.50100
C 	C 	0.09280 0.58540 0.90720 -0.80200
C 	C 	0.09280 0.41460 0.09280 -0.60500
C 	C 	0.90720 0.41460 0.90720 -0.95800
C 	C 	0.90720 0.58540 0.09280 -0.80200
C 	C 	0.58540 0.90720 0.09280 -0.80200
C 	C 	0.41460 0.90720 0.90720 -0.95800
C 	C 	0.41460 0.09280 0.09280 -0.60500
C 	C 	0.58540 0.09280 0.90720 -0.80200
C 	C 	0.90720 0.09280 0.58540 -0.80200
C 	C 	0.09280 0.09280 0.41460 -0.60500
C 	C 	0.09280 0.90720 0.58540 -0.80200
C 	C 	0.90720 0.90720 0.41460 -0.95800
C 	C 	0.59280 0.08540 0.40720 -0.55600
C 	C 	0.59280 0.91460 0.59280 -1.02700
C 	C 	0.40720 0.91460 0.40720 -1.02500
C 	C 	0.40720 0.08540 0.59280 -0.55600
C 	C 	0.08540 0.40720 0.59280 -0.55600
C 	C 	0.91460 0.40720 0.40720 -1.02500
C 	C 	0.91460 0.59280 0.59280 -1.02700
C 	C 	0.08540 0.59280 0.40720 -0.55600
C 	C 	0.40720 0.59280 0.08540 -0.55600
C 	C 	0.59280 0.59280 0.91460 -1.02700
C 	C 	0.59280 0.40720 0.08540 -0.55600
C 	C 	0.40720 0.40720 0.91460 -1.02500
N 	N 	0.09040 0.47085 0.81715 -0.34200
N 	N 	0.09040 0.52915 0.18285 -0.33200
N 	N 	0.90960 0.52915 0.81715 -0.31400
N 	N 	0.90960 0.47085 0.18285 -0.30600
N 	N 	0.47085 0.90960 0.18285 -0.30600
N 	N 	0.52915 0.90960 0.81715 -0.31400
N 	N 	0.52915 0.09040 0.18285 -0.33200
N 	N 	0.47085 0.09040 0.81715 -0.34200
N 	N 	0.47085 0.81715 0.09040 -0.34200
N 	N 	0.52915 0.18285 0.09040 -0.33200
N 	N 	0.47085 0.18285 0.90960 -0.30600
N 	N 	0.52915 0.81715 0.90960 -0.31400
N 	N 	0.81715 0.52915 0.90960 -0.31400
N 	N 	0.81715 0.47085 0.09040 -0.34200
N 	N 	0.18285 0.47085 0.90960 -0.30600
N 	N 	0.18285 0.52915 0.09040 -0.33200
N 	N 	0.81715 0.09040 0.47085 -0.34200
N 	N 	0.18285 0.09040 0.52915 -0.33200
N 	N 	0.18285 0.90960 0.47085 -0.30600
N 	N 	0.81715 0.90960 0.52915 -0.31400
N 	N 	0.09040 0.81715 0.47085 -0.34200
N 	N 	0.09040 0.18285 0.52915 -0.33200
N 	N 	0.90960 0.81715 0.52915 -0.31400
N 	N 	0.90960 0.18285 0.47085 -0.30600
N 	N 	0.59040 0.97085 0.31715 -0.22800
N 	N 	0.59040 0.02915 0.68285 -0.41900
N 	N 	0.40960 0.02915 0.31715 -0.42000
N 	N 	0.40960 0.97085 0.68285 -0.22800
N 	N 	0.97085 0.40960 0.68285 -0.22800
N 	N 	0.02915 0.40960 0.31715 -0.42000
N 	N 	0.02915 0.59040 0.68285 -0.41900
N 	N 	0.97085 0.59040 0.31715 -0.22800
N 	N 	0.97085 0.31715 0.59040 -0.22800
N 	N 	0.02915 0.68285 0.59040 -0.41900
N 	N 	0.97085 0.68285 0.40960 -0.22800
N 	N 	0.02915 0.31715 0.40960 -0.42000
N 	N 	0.31715 0.02915 0.40960 -0.42000
N 	N 	0.31715 0.97085 0.59040 -0.22800
N 	N 	0.68285 0.97085 0.40960 -0.22800
N 	N 	0.68285 0.02915 0.59040 -0.41900
N 	N 	0.31715 0.59040 0.97085 -0.22800
N 	N 	0.68285 0.59040 0.02915 -0.41900
N 	N 	0.68285 0.40960 0.97085 -0.22800
N 	N 	0.31715 0.40960 0.02915 -0.42000
N 	N 	0.59040 0.31715 0.97085 -0.22800
N 	N 	0.59040 0.68285 0.02915 -0.41900
N 	N 	0.40960 0.31715 0.02915 -0.42000
N 	N 	0.40960 0.68285 0.97085 -0.22800
