data_crystal

_cell_length_a 12.92560
_cell_length_b 14.55500
_cell_length_c 16.78400
_cell_angle_alpha 108.56500
_cell_angle_beta  90.00000
_cell_angle_gamma 90.00000

_symmetry_space_group_name_	'P 1'
_symmetry_space_group_name_H-M	'P 1'

loop_
_symmetry_equiv_pos_as_xyz
  x,y,z

loop_
_atom_site_label
_atom_site_type_symbol
_atom_site_fract_x
_atom_site_fract_y
_atom_site_fract_z
_atom_site_charge
Zn	Zn	0.51378 0.81972 0.81790 1.23800
Zn	Zn	0.44707 0.09925 0.34551 1.23100
Zn	Zn	0.01378 0.68028 0.18210 1.23600
Zn	Zn	0.94707 0.40075 0.65449 1.23000
Zn	Zn	0.48622 0.18028 0.18210 1.23800
Zn	Zn	0.55293 0.90075 0.65449 1.23100
Zn	Zn	0.98622 0.31972 0.81790 1.23600
Zn	Zn	0.05293 0.59925 0.34551 1.23000
H 	H 	0.33080 0.71670 0.50150 0.12000
H 	H 	0.07460 0.56440 0.50910 0.11300
H 	H 	0.26190 0.64820 0.71040 0.09100
H 	H 	0.23750 0.78010 0.04280 0.09700
H 	H 	0.27280 0.98430 0.26760 0.10600
H 	H 	0.44050 0.99640 0.06920 0.12000
H 	H 	0.83080 0.78330 0.49850 0.11900
H 	H 	0.57460 0.93560 0.49090 0.11200
H 	H 	0.76190 0.85180 0.28960 0.09100
H 	H 	0.73750 0.71990 0.95720 0.09600
H 	H 	0.77280 0.51570 0.73240 0.10700
H 	H 	0.94050 0.50360 0.93080 0.11600
H 	H 	0.66920 0.28330 0.49850 0.11900
H 	H 	0.92540 0.43560 0.49090 0.11200
H 	H 	0.73810 0.35180 0.28960 0.09100
H 	H 	0.76250 0.21990 0.95720 0.09700
H 	H 	0.72720 0.01570 0.73240 0.10600
H 	H 	0.55950 0.00360 0.93080 0.12000
H 	H 	0.16920 0.21670 0.50150 0.11900
H 	H 	0.42540 0.06440 0.50910 0.11200
H 	H 	0.23810 0.14820 0.71040 0.09100
H 	H 	0.26250 0.28010 0.04280 0.09600
H 	H 	0.22720 0.48430 0.26760 0.10700
H 	H 	0.05950 0.49640 0.06920 0.11600
C 	C 	0.40050 0.75060 0.65710 0.38500
C 	C 	0.30920 0.69410 0.61350 -0.01300
C 	C 	0.28600 0.68860 0.53050 -0.15800
C 	C 	0.19680 0.64170 0.49050 0.25600
C 	C 	0.13400 0.59660 0.53470 -0.19900
C 	C 	0.15740 0.59830 0.61540 0.02300
C 	C 	0.09430 0.54130 0.65930 0.31000
C 	C 	0.24570 0.64710 0.65610 -0.05600
C 	C 	0.37820 0.83570 0.95260 0.30100
C 	C 	0.34430 0.88250 0.04230 0.04300
C 	C 	0.26940 0.83630 0.07640 -0.08900
C 	C 	0.24320 0.87490 0.16050 0.03600
C 	C 	0.16230 0.82440 0.19660 0.31200
C 	C 	0.29110 0.95880 0.21120 -0.21700
C 	C 	0.36630 0.00470 0.17770 0.27100
C 	C 	0.39140 0.96570 0.09240 -0.21900
C 	C 	0.90050 0.74940 0.34290 0.38400
C 	C 	0.80920 0.80590 0.38650 -0.01200
C 	C 	0.78600 0.81140 0.46950 -0.15800
C 	C 	0.69680 0.85830 0.50950 0.25600
C 	C 	0.63400 0.90340 0.46530 -0.19900
C 	C 	0.65740 0.90170 0.38460 0.02300
C 	C 	0.59430 0.95870 0.34070 0.31000
C 	C 	0.74570 0.85290 0.34390 -0.05600
C 	C 	0.87820 0.66430 0.04740 0.30600
C 	C 	0.84430 0.61750 0.95770 0.03600
C 	C 	0.76940 0.66370 0.92360 -0.08600
C 	C 	0.74320 0.62510 0.83950 0.03600
C 	C 	0.66230 0.67560 0.80340 0.31200
C 	C 	0.79110 0.54120 0.78880 -0.21700
C 	C 	0.86630 0.49530 0.82230 0.27100
C 	C 	0.89140 0.53430 0.90760 -0.21600
C 	C 	0.59950 0.24940 0.34290 0.38500
C 	C 	0.69080 0.30590 0.38650 -0.01300
C 	C 	0.71400 0.31140 0.46950 -0.15800
C 	C 	0.80320 0.35830 0.50950 0.25600
C 	C 	0.86600 0.40340 0.46530 -0.19900
C 	C 	0.84260 0.40170 0.38460 0.02300
C 	C 	0.90570 0.45870 0.34070 0.31000
C 	C 	0.75430 0.35290 0.34390 -0.05600
C 	C 	0.62180 0.16430 0.04740 0.30100
C 	C 	0.65570 0.11750 0.95770 0.04300
C 	C 	0.73060 0.16370 0.92360 -0.08900
C 	C 	0.75680 0.12510 0.83950 0.03600
C 	C 	0.83770 0.17560 0.80340 0.31200
C 	C 	0.70890 0.04120 0.78880 -0.21700
C 	C 	0.63370 0.99530 0.82230 0.27100
C 	C 	0.60860 0.03430 0.90760 -0.21900
C 	C 	0.09950 0.25060 0.65710 0.38400
C 	C 	0.19080 0.19410 0.61350 -0.01200
C 	C 	0.21400 0.18860 0.53050 -0.15800
C 	C 	0.30320 0.14170 0.49050 0.25600
C 	C 	0.36600 0.09660 0.53470 -0.19900
C 	C 	0.34260 0.09830 0.61540 0.02300
C 	C 	0.40570 0.04130 0.65930 0.31000
C 	C 	0.25430 0.14710 0.65610 -0.05600
C 	C 	0.12180 0.33570 0.95260 0.30600
C 	C 	0.15570 0.38250 0.04230 0.03600
C 	C 	0.23060 0.33630 0.07640 -0.08600
C 	C 	0.25680 0.37490 0.16050 0.03600
C 	C 	0.33770 0.32440 0.19660 0.31200
C 	C 	0.20890 0.45880 0.21120 -0.21700
C 	C 	0.13370 0.50470 0.17770 0.27100
C 	C 	0.10860 0.46570 0.09240 -0.21600
O 	O 	0.45780 0.78900 0.61600 -0.47100
O 	O 	0.41410 0.75530 0.73180 -0.47500
O 	O 	0.17710 0.64160 0.41190 -0.41900
O 	O 	0.01180 0.50410 0.62220 -0.44600
O 	O 	0.12390 0.53220 0.72570 -0.28700
O 	O 	0.44200 0.88290 0.92360 -0.42900
O 	O 	0.34640 0.75420 0.91150 -0.26000
O 	O 	0.11770 0.75300 0.14500 -0.43700
O 	O 	0.14050 0.85420 0.27120 -0.28600
O 	O 	0.41520 0.08580 0.22750 -0.59400
O 	O 	0.95780 0.71100 0.38400 -0.46900
O 	O 	0.91410 0.74470 0.26820 -0.47200
O 	O 	0.67710 0.85840 0.58810 -0.41900
O 	O 	0.51180 0.99590 0.37780 -0.44700
O 	O 	0.62390 0.96780 0.27430 -0.28700
O 	O 	0.94200 0.61710 0.07640 -0.42500
O 	O 	0.84640 0.74580 0.08850 -0.25900
O 	O 	0.61770 0.74700 0.85500 -0.43600
O 	O 	0.64050 0.64580 0.72880 -0.28500
O 	O 	0.91520 0.41420 0.77250 -0.59500
O 	O 	0.54220 0.21100 0.38400 -0.47100
O 	O 	0.58590 0.24470 0.26820 -0.47500
O 	O 	0.82290 0.35840 0.58810 -0.41900
O 	O 	0.98820 0.49590 0.37780 -0.44600
O 	O 	0.87610 0.46780 0.27430 -0.28700
O 	O 	0.55800 0.11710 0.07640 -0.42900
O 	O 	0.65360 0.24580 0.08850 -0.26000
O 	O 	0.88230 0.24700 0.85500 -0.43700
O 	O 	0.85950 0.14580 0.72880 -0.28600
O 	O 	0.58480 0.91420 0.77250 -0.59400
O 	O 	0.04220 0.28900 0.61600 -0.46900
O 	O 	0.08590 0.25530 0.73180 -0.47200
O 	O 	0.32290 0.14160 0.41190 -0.41900
O 	O 	0.48820 0.00410 0.62220 -0.44700
O 	O 	0.37610 0.03220 0.72570 -0.28700
O 	O 	0.05800 0.38290 0.92360 -0.42500
O 	O 	0.15360 0.25420 0.91150 -0.25900
O 	O 	0.38230 0.25300 0.14500 -0.43600
O 	O 	0.35950 0.35420 0.27120 -0.28500
O 	O 	0.08480 0.58580 0.22750 -0.59500
