data_crystal

_cell_length_a 10.72100
_cell_length_b 13.01800
_cell_length_c 15.18300
_cell_angle_alpha 95.59900
_cell_angle_beta  108.01000
_cell_angle_gamma 104.70200

_symmetry_space_group_name_	'P 1'
_symmetry_space_group_name_H-M	'P 1'

loop_
_symmetry_equiv_pos_as_xyz
  x,y,z

loop_
_atom_site_label
_atom_site_type_symbol
_atom_site_fract_x
_atom_site_fract_y
_atom_site_fract_z
_atom_site_charge
Zn	Zn	0.58228 0.07958 0.65621 1.21400
Zn	Zn	0.74817 0.36797 0.91608 1.22300
Zn	Zn	0.41831 0.54113 0.83732 1.17900
Zn	Zn	0.41772 0.92042 0.34379 1.21500
Zn	Zn	0.25183 0.63203 0.08392 1.22400
Zn	Zn	0.58169 0.45887 0.16268 1.17900
H 	H 	0.85230 0.43180 0.66580 0.15000
H 	H 	0.69470 0.37780 0.61270 0.14900
H 	H 	0.05850 0.33260 0.85900 0.15000
H 	H 	0.16590 0.29830 0.93680 0.13000
H 	H 	0.63680 0.27420 0.47540 0.14700
H 	H 	0.75300 0.24860 0.44350 0.15200
H 	H 	0.05110 0.04030 0.38980 0.12200
H 	H 	0.93280 0.06490 0.41930 0.12300
H 	H 	0.26300 0.08950 0.61000 0.11300
H 	H 	0.23970 0.04300 0.50520 0.13900
H 	H 	0.30040 0.19400 0.80820 0.15700
H 	H 	0.32580 0.24170 0.91280 0.13000
H 	H 	0.88340 0.68430 0.81570 0.08400
H 	H 	0.01510 0.59440 0.91000 -0.00300
H 	H 	0.15970 0.42020 0.49280 0.10600
H 	H 	0.18410 0.62280 0.76400 -0.02100
H 	H 	0.05020 0.03300 0.84060 0.07000
H 	H 	0.26020 0.86500 0.07770 -0.02400
H 	H 	0.33500 0.44000 0.63360 -0.01200
H 	H 	0.13850 0.96410 0.98830 0.07300
H 	H 	0.00490 0.60680 0.62820 0.10000
H 	H 	0.72810 0.77480 0.80370 0.04500
H 	H 	0.89930 0.11770 0.76000 0.01000
H 	H 	0.58580 0.86650 0.72140 -0.00100
H 	H 	0.14770 0.56820 0.33420 0.15000
H 	H 	0.30530 0.62220 0.38730 0.14900
H 	H 	0.94150 0.66740 0.14100 0.15000
H 	H 	0.83410 0.70170 0.06320 0.13000
H 	H 	0.36320 0.72580 0.52460 0.14700
H 	H 	0.24700 0.75140 0.55650 0.15200
H 	H 	0.94890 0.95970 0.61020 0.12200
H 	H 	0.06720 0.93510 0.58070 0.12300
H 	H 	0.73700 0.91050 0.39000 0.11300
H 	H 	0.76030 0.95700 0.49480 0.13900
H 	H 	0.69960 0.80600 0.19180 0.15700
H 	H 	0.67420 0.75830 0.08720 0.13000
H 	H 	0.11660 0.31570 0.18430 0.08400
H 	H 	0.98490 0.40560 0.09000 -0.00300
H 	H 	0.84030 0.57980 0.50720 0.10600
H 	H 	0.81590 0.37720 0.23600 -0.02100
H 	H 	0.94980 0.96700 0.15940 0.07000
H 	H 	0.73980 0.13500 0.92230 -0.02400
H 	H 	0.66500 0.56000 0.36640 -0.01200
H 	H 	0.86150 0.03590 0.01170 0.07300
H 	H 	0.99510 0.39320 0.37180 0.10000
H 	H 	0.27190 0.22520 0.19630 0.04500
H 	H 	0.10070 0.88230 0.24000 0.01000
H 	H 	0.41420 0.13350 0.27860 -0.00100
C 	C 	0.77930 0.36370 0.64720 -0.32800
C 	C 	0.76490 0.32580 0.73620 0.43600
C 	C 	0.12820 0.27860 0.72700 0.14200
C 	C 	0.08110 0.19060 0.57950 0.16200
C 	C 	0.93080 0.26760 0.61160 0.16400
C 	C 	0.15610 0.34450 0.89030 -0.35600
C 	C 	0.70760 0.23820 0.48960 -0.33600
C 	C 	0.02520 0.09680 0.41980 -0.25200
C 	C 	0.24700 0.10680 0.54750 -0.30000
C 	C 	0.63900 0.11740 0.47830 0.46300
C 	C 	0.46340 0.32500 0.86290 0.49100
C 	C 	0.32390 0.26090 0.85230 -0.39600
C 	C 	0.22030 0.46100 0.94160 0.44300
C 	C 	0.36930 0.19690 0.55040 0.39400
C 	C 	0.02180 0.18390 0.36030 0.34200
C 	C 	0.95920 0.72290 0.86840 -0.13100
C 	C 	0.05840 0.50790 0.54490 0.06900
C 	C 	0.03870 0.66930 0.92610 0.07500
C 	C 	0.16160 0.46040 0.54750 -0.14600
C 	C 	0.17790 0.58070 0.70880 0.08800
C 	C 	0.90440 0.89450 0.83360 0.04900
C 	C 	0.95610 0.99810 0.81810 -0.12300
C 	C 	0.18340 0.82890 0.02480 0.08000
C 	C 	0.26740 0.47330 0.63230 0.09200
C 	C 	0.11080 0.88910 0.97120 -0.13800
C 	C 	0.99490 0.83550 0.89080 0.06200
C 	C 	0.06980 0.57120 0.62760 -0.15100
C 	C 	0.76520 0.84460 0.79600 -0.11000
C 	C 	0.86430 0.04770 0.76840 0.07100
C 	C 	0.68020 0.90030 0.74610 0.04900
C 	C 	0.22070 0.63630 0.35280 -0.32800
C 	C 	0.23510 0.67420 0.26380 0.43600
C 	C 	0.87180 0.72140 0.27300 0.14200
C 	C 	0.91890 0.80940 0.42050 0.16200
C 	C 	0.06920 0.73240 0.38840 0.16400
C 	C 	0.84390 0.65550 0.10970 -0.35600
C 	C 	0.29240 0.76180 0.51040 -0.33600
C 	C 	0.97480 0.90320 0.58020 -0.25200
C 	C 	0.75300 0.89320 0.45250 -0.30000
C 	C 	0.36100 0.88260 0.52170 0.46300
C 	C 	0.53660 0.67500 0.13710 0.49100
C 	C 	0.67610 0.73910 0.14770 -0.39600
C 	C 	0.77970 0.53900 0.05840 0.44300
C 	C 	0.63070 0.80310 0.44960 0.39400
C 	C 	0.97820 0.81610 0.63970 0.34200
C 	C 	0.04080 0.27710 0.13160 -0.13100
C 	C 	0.94160 0.49210 0.45510 0.06900
C 	C 	0.96130 0.33070 0.07390 0.07500
C 	C 	0.83840 0.53960 0.45250 -0.14600
C 	C 	0.82210 0.41930 0.29120 0.08800
C 	C 	0.09560 0.10550 0.16640 0.04900
C 	C 	0.04390 0.00190 0.18190 -0.12300
C 	C 	0.81660 0.17110 0.97520 0.08000
C 	C 	0.73260 0.52670 0.36770 0.09200
C 	C 	0.88920 0.11090 0.02880 -0.13800
C 	C 	0.00510 0.16450 0.10920 0.06200
C 	C 	0.93020 0.42880 0.37240 -0.15100
C 	C 	0.23480 0.15540 0.20400 -0.11000
C 	C 	0.13570 0.95230 0.23160 0.07100
C 	C 	0.31980 0.09970 0.25390 0.04900
N 	N 	0.01230 0.30770 0.70140 -0.15500
N 	N 	0.80860 0.29020 0.58350 -0.04300
N 	N 	0.17030 0.22260 0.66880 -0.16000
N 	N 	0.95840 0.20800 0.54580 -0.15100
N 	N 	0.11670 0.13100 0.51690 -0.05000
N 	N 	0.21250 0.31020 0.82020 -0.05500
N 	N 	0.14710 0.72050 0.00340 -0.26500
N 	N 	0.27490 0.53190 0.71160 -0.28900
N 	N 	0.72950 0.00160 0.73220 -0.22700
N 	N 	0.98770 0.69230 0.29860 -0.15500
N 	N 	0.19140 0.70980 0.41650 -0.04300
N 	N 	0.82970 0.77740 0.33120 -0.16000
N 	N 	0.04160 0.79200 0.45420 -0.15100
N 	N 	0.88330 0.86900 0.48310 -0.05000
N 	N 	0.78750 0.68980 0.17980 -0.05500
N 	N 	0.85290 0.27950 0.99660 -0.26500
N 	N 	0.72510 0.46810 0.28840 -0.28900
N 	N 	0.27050 0.99840 0.26780 -0.22700
O 	O 	0.65940 0.07230 0.54920 -0.46900
O 	O 	0.78380 0.40550 0.80280 -0.47400
O 	O 	0.73650 0.23140 0.74720 -0.47300
O 	O 	0.56890 0.06950 0.39540 -0.48300
O 	O 	0.55450 0.27820 0.88550 -0.51800
O 	O 	0.49430 0.42080 0.85120 -0.57800
O 	O 	0.17520 0.48420 0.00660 -0.49300
O 	O 	0.30590 0.53090 0.92080 -0.55000
O 	O 	0.35080 0.27270 0.50680 -0.24500
O 	O 	0.48790 0.19180 0.59350 -0.43600
O 	O 	0.13420 0.26460 0.38160 -0.22500
O 	O 	0.91880 0.17760 0.29380 -0.27200
O 	O 	0.34060 0.92770 0.45080 -0.46900
O 	O 	0.21620 0.59450 0.19720 -0.47400
O 	O 	0.26350 0.76860 0.25280 -0.47300
O 	O 	0.43110 0.93050 0.60460 -0.48300
O 	O 	0.44550 0.72180 0.11450 -0.51800
O 	O 	0.50570 0.57920 0.14880 -0.57800
O 	O 	0.82480 0.51580 0.99340 -0.49300
O 	O 	0.69410 0.46910 0.07920 -0.55000
O 	O 	0.64920 0.72730 0.49320 -0.24500
O 	O 	0.51210 0.80820 0.40650 -0.43600
O 	O 	0.86580 0.73540 0.61840 -0.22500
O 	O 	0.08120 0.82240 0.70620 -0.27200
