data_crystal

_cell_length_a 14.63900
_cell_length_b 19.37900
_cell_length_c 19.48400
_cell_angle_alpha 116.04600
_cell_angle_beta  90.00000
_cell_angle_gamma 90.00000

_symmetry_space_group_name_	'P 1'
_symmetry_space_group_name_H-M	'P 1'

loop_
_symmetry_equiv_pos_as_xyz
  x,y,z

loop_
_atom_site_label
_atom_site_type_symbol
_atom_site_fract_x
_atom_site_fract_y
_atom_site_fract_z
_atom_site_charge
Zn	Zn	0.23192 0.41406 0.75143 1.20900
Zn	Zn	0.57077 0.51084 0.63425 1.21600
Zn	Zn	0.63729 0.47438 0.78102 1.21800
Zn	Zn	0.08695 0.96783 0.18855 1.22600
Zn	Zn	0.20170 0.13456 0.82008 1.19900
Zn	Zn	0.26420 0.06899 0.64112 1.20200
Zn	Zn	0.73192 0.58594 0.24857 1.20900
Zn	Zn	0.07077 0.48916 0.36575 1.21200
Zn	Zn	0.13729 0.52562 0.21898 1.21700
Zn	Zn	0.58695 0.03217 0.81145 1.22800
Zn	Zn	0.70170 0.86544 0.17992 1.19900
Zn	Zn	0.76420 0.93101 0.35888 1.20300
H 	H 	0.61540 0.92390 0.96410 0.05200
H 	H 	0.65480 0.70910 0.93720 0.02500
H 	H 	0.38740 0.44310 0.86500 0.32600
H 	H 	0.49260 0.42650 0.85490 0.32500
H 	H 	0.42260 0.35990 0.81280 0.32200
H 	H 	0.27530 0.46650 0.63190 0.33300
H 	H 	0.33320 0.40400 0.56630 0.32000
H 	H 	0.35910 0.49100 0.59750 0.32700
H 	H 	0.91120 0.94400 0.07890 0.29600
H 	H 	0.82700 0.89170 0.07300 0.28200
H 	H 	0.92650 0.85970 0.06780 0.28900
H 	H 	0.03170 0.99680 0.36240 0.28500
H 	H 	0.94050 0.03000 0.40700 0.28500
H 	H 	0.99380 0.07550 0.37010 0.30400
H 	H 	0.13970 0.37070 0.88230 0.30500
H 	H 	0.24240 0.36950 0.90450 0.29300
H 	H 	0.17340 0.31000 0.90960 0.29800
H 	H 	0.34640 0.22950 0.60600 0.28300
H 	H 	0.27010 0.28990 0.61550 0.25500
H 	H 	0.24820 0.20180 0.57350 0.28200
H 	H 	0.89400 0.42020 0.70430 0.05600
H 	H 	0.08510 0.42470 0.55800 0.05800
H 	H 	0.82050 0.43720 0.51360 0.03300
H 	H 	0.20170 0.53440 0.00160 0.02100
H 	H 	0.16690 0.70380 0.93620 0.03200
H 	H 	0.14650 0.74550 0.15620 0.03000
H 	H 	0.59230 0.74610 0.75800 0.03700
H 	H 	0.42780 0.94910 0.22930 0.01700
H 	H 	0.50650 0.00440 0.44220 -0.00500
H 	H 	0.24670 0.01880 0.39680 -0.00100
H 	H 	0.11540 0.07610 0.03590 0.04700
H 	H 	0.15480 0.29090 0.06280 0.02200
H 	H 	0.88740 0.55690 0.13500 0.34300
H 	H 	0.99260 0.57350 0.14510 0.34900
H 	H 	0.92260 0.64010 0.18720 0.34100
H 	H 	0.77530 0.53350 0.36810 0.33800
H 	H 	0.83320 0.59600 0.43370 0.32600
H 	H 	0.85910 0.50900 0.40250 0.33300
H 	H 	0.41120 0.05600 0.92110 0.28400
H 	H 	0.32700 0.10830 0.92700 0.27400
H 	H 	0.42650 0.14030 0.93220 0.27700
H 	H 	0.53170 0.00320 0.63760 0.31300
H 	H 	0.44050 0.97000 0.59300 0.30000
H 	H 	0.49380 0.92450 0.62990 0.31400
H 	H 	0.63970 0.62930 0.11770 0.31100
H 	H 	0.74240 0.63050 0.09550 0.29700
H 	H 	0.67340 0.69000 0.09040 0.30300
H 	H 	0.84640 0.77050 0.39400 0.28800
H 	H 	0.77010 0.71010 0.38450 0.26000
H 	H 	0.74820 0.79820 0.42650 0.28700
H 	H 	0.39400 0.57980 0.29570 0.03400
H 	H 	0.58510 0.57530 0.44200 0.03100
H 	H 	0.32050 0.56280 0.48640 0.01800
H 	H 	0.70170 0.46560 0.99840 0.02300
H 	H 	0.66690 0.29620 0.06380 0.03500
H 	H 	0.64650 0.25450 0.84380 0.03300
H 	H 	0.09230 0.25390 0.24200 0.03200
H 	H 	0.92780 0.05090 0.77070 0.02300
H 	H 	0.00650 0.99560 0.55780 -0.02400
H 	H 	0.74670 0.98120 0.60320 -0.00200
C 	C 	0.58320 0.89900 0.81980 0.37100
C 	C 	0.60060 0.84170 0.85600 -0.10900
C 	C 	0.61740 0.87140 0.93260 0.05500
C 	C 	0.63710 0.81930 0.95990 -0.11300
C 	C 	0.64060 0.74220 0.91570 0.08400
C 	C 	0.62340 0.71430 0.84040 -0.16200
C 	C 	0.62310 0.63150 0.79190 0.41400
C 	C 	0.92440 0.98420 0.29210 0.35200
C 	C 	0.88990 0.93320 0.17860 0.29600
C 	C 	0.43430 0.41370 0.82990 -1.06700
C 	C 	0.43470 0.43070 0.76650 0.39200
C 	C 	0.39540 0.44570 0.66790 0.37200
C 	C 	0.33560 0.45200 0.61100 -1.02200
C 	C 	0.88850 0.90440 0.09140 -0.87900
C 	C 	0.97730 0.02530 0.36430 -0.89200
C 	C 	0.18970 0.33840 0.88150 -0.92600
C 	C 	0.21140 0.28290 0.79980 0.32700
C 	C 	0.25490 0.24170 0.68790 0.32600
C 	C 	0.28230 0.24060 0.61430 -0.89300
C 	C 	0.74910 0.44290 0.64450 0.41700
C 	C 	0.84210 0.43000 0.61410 -0.12800
C 	C 	0.90960 0.42180 0.65880 0.03100
C 	C 	0.99940 0.41600 0.63750 -0.03900
C 	C 	0.07430 0.41220 0.69130 0.31400
C 	C 	0.02410 0.42330 0.57080 -0.03000
C 	C 	0.95310 0.42840 0.52440 -0.07700
C 	C 	0.97920 0.43520 0.45180 0.37500
C 	C 	0.86590 0.43260 0.54480 0.04800
C 	C 	0.15990 0.60800 0.14710 0.32200
C 	C 	0.16770 0.63450 0.08550 -0.13800
C 	C 	0.18630 0.58470 0.01240 0.07700
C 	C 	0.18350 0.60640 0.95010 -0.16700
C 	C 	0.20240 0.55240 0.87230 0.42200
C 	C 	0.16710 0.68580 0.97330 0.09000
C 	C 	0.15200 0.73620 0.04610 -0.14400
C 	C 	0.15420 0.71060 0.10530 0.06200
C 	C 	0.13230 0.81930 0.07070 0.37300
C 	C 	0.65880 0.85260 0.04670 0.32900
C 	C 	0.60360 0.76470 0.81000 0.07800
C 	C 	0.25380 0.97360 0.25040 0.39700
C 	C 	0.32460 0.98380 0.30350 -0.21100
C 	C 	0.41350 0.96650 0.28070 0.14400
C 	C 	0.48350 0.97420 0.33240 -0.21400
C 	C 	0.57900 0.95020 0.30480 0.47100
C 	C 	0.46090 0.99920 0.40710 0.15700
C 	C 	0.37350 0.01700 0.43170 -0.21700
C 	C 	0.35460 0.04270 0.51410 0.39400
C 	C 	0.30680 0.00810 0.37990 0.15200
C 	C 	0.08320 0.10100 0.18020 0.37200
C 	C 	0.10060 0.15830 0.14400 -0.11600
C 	C 	0.11740 0.12860 0.06740 0.05700
C 	C 	0.13710 0.18070 0.04010 -0.11800
C 	C 	0.14060 0.25780 0.08430 0.08700
C 	C 	0.12340 0.28570 0.15960 -0.16800
C 	C 	0.12310 0.36850 0.20810 0.41400
C 	C 	0.42440 0.01580 0.70790 0.35800
C 	C 	0.38990 0.06680 0.82140 0.28700
C 	C 	0.93430 0.58630 0.17010 -1.11900
C 	C 	0.93470 0.56930 0.23350 0.42500
C 	C 	0.89540 0.55430 0.33210 0.37800
C 	C 	0.83560 0.54800 0.38900 -1.03200
C 	C 	0.38850 0.09560 0.90860 -0.86000
C 	C 	0.47730 0.97470 0.63570 -0.94800
C 	C 	0.68970 0.66160 0.11850 -0.93600
C 	C 	0.71140 0.71710 0.20020 0.33200
C 	C 	0.75490 0.75830 0.31210 0.33100
C 	C 	0.78230 0.75940 0.38570 -0.90300
C 	C 	0.24910 0.55710 0.35550 0.43000
C 	C 	0.34210 0.57000 0.38590 -0.16700
C 	C 	0.40960 0.57820 0.34120 0.08100
C 	C 	0.49940 0.58400 0.36250 -0.11900
C 	C 	0.57430 0.58780 0.30870 0.35300
C 	C 	0.52410 0.57670 0.42920 0.06400
C 	C 	0.45310 0.57160 0.47560 -0.13500
C 	C 	0.47920 0.56480 0.54820 0.36700
C 	C 	0.36590 0.56740 0.45520 0.09100
C 	C 	0.65990 0.39200 0.85290 0.32400
C 	C 	0.66770 0.36550 0.91450 -0.13300
C 	C 	0.68630 0.41530 0.98760 0.07600
C 	C 	0.68350 0.39360 0.04990 -0.16200
C 	C 	0.70240 0.44760 0.12770 0.42200
C 	C 	0.66710 0.31420 0.02670 0.09000
C 	C 	0.65200 0.26380 0.95390 -0.13900
C 	C 	0.65420 0.28940 0.89470 0.06100
C 	C 	0.63230 0.18070 0.92930 0.37300
C 	C 	0.15880 0.14740 0.95330 0.32900
C 	C 	0.10360 0.23530 0.19000 0.08100
C 	C 	0.75380 0.02640 0.74960 0.39800
C 	C 	0.82460 0.01620 0.69650 -0.21600
C 	C 	0.91350 0.03350 0.71930 0.14200
C 	C 	0.98350 0.02580 0.66760 -0.20100
C 	C 	0.07900 0.04980 0.69520 0.45300
C 	C 	0.96090 0.00080 0.59290 0.17700
C 	C 	0.87350 0.98300 0.56830 -0.22000
C 	C 	0.85460 0.95730 0.48590 0.39700
C 	C 	0.80680 0.99190 0.62010 0.16200
N 	N 	0.95450 0.97130 0.22590 -0.35200
N 	N 	0.81380 0.92680 0.21640 -0.29700
N 	N 	0.83930 0.95740 0.29060 -0.30900
N 	N 	0.48410 0.46260 0.67880 -0.31000
N 	N 	0.50950 0.45550 0.74190 -0.30600
N 	N 	0.36390 0.42830 0.72250 -0.38700
N 	N 	0.22020 0.20920 0.77360 -0.30100
N 	N 	0.24650 0.18270 0.70150 -0.30400
N 	N 	0.23170 0.30750 0.74780 -0.36800
N 	N 	0.45450 0.02870 0.77410 -0.36000
N 	N 	0.31380 0.07320 0.78360 -0.29700
N 	N 	0.33930 0.04260 0.70940 -0.31200
N 	N 	0.98410 0.53740 0.32120 -0.29800
N 	N 	0.00950 0.54450 0.25810 -0.32800
N 	N 	0.86390 0.57170 0.27750 -0.39200
N 	N 	0.72020 0.79080 0.22640 -0.30100
N 	N 	0.74650 0.81730 0.29850 -0.30400
N 	N 	0.73170 0.69250 0.25220 -0.36800
O 	O 	0.59640 0.96710 0.86420 -0.45700
O 	O 	0.60380 0.60810 0.71880 -0.48000
O 	O 	0.73270 0.43970 0.70470 -0.50900
O 	O 	0.68770 0.45520 0.60320 -0.48100
O 	O 	0.05010 0.40860 0.74860 -0.34100
O 	O 	0.15480 0.41180 0.66740 -0.47500
O 	O 	0.93030 0.40360 0.39590 -0.33200
O 	O 	0.04720 0.47470 0.45590 -0.49100
O 	O 	0.14860 0.65200 0.21270 -0.36300
O 	O 	0.16750 0.53470 0.12460 -0.44600
O 	O 	0.22230 0.48660 0.85940 -0.51600
O 	O 	0.19430 0.57450 0.82300 -0.33700
O 	O 	0.09250 0.85560 0.13150 -0.48100
O 	O 	0.14910 0.84290 0.02060 -0.27400
O 	O 	0.56280 0.87230 0.75350 -0.33200
O 	O 	0.63940 0.58720 0.82010 -0.49600
O 	O 	0.67670 0.80380 0.07190 -0.48300
O 	O 	0.66020 0.92190 0.08430 -0.33500
O 	O 	0.17280 0.98580 0.27260 -0.47100
O 	O 	0.27200 0.95370 0.18110 -0.30800
O 	O 	0.27520 0.03190 0.53230 -0.48800
O 	O 	0.40830 0.07880 0.56400 -0.38900
O 	O 	0.63850 0.96610 0.35650 -0.51700
O 	O 	0.59140 0.91970 0.23670 -0.52000
O 	O 	0.09640 0.03290 0.13580 -0.46500
O 	O 	0.10380 0.39190 0.28120 -0.48500
O 	O 	0.23270 0.56030 0.29530 -0.51500
O 	O 	0.18770 0.54480 0.39680 -0.48800
O 	O 	0.55010 0.59140 0.25140 -0.34300
O 	O 	0.65480 0.58820 0.33260 -0.48100
O 	O 	0.43030 0.59640 0.60410 -0.33700
O 	O 	0.54720 0.52530 0.54410 -0.47400
O 	O 	0.64860 0.34800 0.78730 -0.35700
O 	O 	0.66750 0.46530 0.87540 -0.44200
O 	O 	0.72230 0.51340 0.14060 -0.51500
O 	O 	0.69430 0.42550 0.17700 -0.33300
O 	O 	0.59250 0.14440 0.86850 -0.47400
O 	O 	0.64910 0.15710 0.97940 -0.27000
O 	O 	0.06280 0.12770 0.24650 -0.34100
O 	O 	0.13940 0.41280 0.17990 -0.50000
O 	O 	0.17670 0.19620 0.92810 -0.48600
O 	O 	0.16020 0.07810 0.91570 -0.34000
O 	O 	0.67280 0.01420 0.72740 -0.47000
O 	O 	0.77200 0.04630 0.81890 -0.30700
O 	O 	0.77520 0.96810 0.46770 -0.48500
O 	O 	0.90830 0.92120 0.43600 -0.38200
O 	O 	0.13850 0.03390 0.64350 -0.51800
O 	O 	0.09140 0.08030 0.76330 -0.52300
