data_crystal

_cell_length_a 8.24600
_cell_length_b 9.70500
_cell_length_c 19.40800
_cell_angle_alpha 90.00000
_cell_angle_beta  90.00000
_cell_angle_gamma 101.79000

_symmetry_space_group_name_	'P 1'
_symmetry_space_group_name_H-M	'P 1'

loop_
_symmetry_equiv_pos_as_xyz
  x,y,z

loop_
_atom_site_label
_atom_site_type_symbol
_atom_site_fract_x
_atom_site_fract_y
_atom_site_fract_z
_atom_site_charge
Zn	Zn	0.28527 0.15785 0.48235 1.27700
Zn	Zn	0.63807 0.05371 0.42600 1.21900
Zn	Zn	0.71473 0.84215 0.98235 1.27400
Zn	Zn	0.36193 0.94629 0.92600 1.21500
H 	H 	0.04010 0.20000 0.60210 -0.16000
H 	H 	0.95230 0.32090 0.57760 -0.13400
H 	H 	0.14010 0.44870 0.64060 0.61800
H 	H 	0.24720 0.45220 0.57360 0.60400
H 	H 	0.26250 0.34560 0.63270 0.60200
H 	H 	0.20840 0.24850 0.49070 -0.16800
H 	H 	0.95990 0.80000 0.10210 -0.13800
H 	H 	0.04770 0.67910 0.07760 -0.10900
H 	H 	0.85990 0.55130 0.14060 0.60400
H 	H 	0.75280 0.54780 0.07360 0.59900
H 	H 	0.73750 0.65440 0.13270 0.59100
H 	H 	0.79160 0.75150 0.99070 -0.21500
C 	C 	0.05570 0.28780 0.57670 0.80700
C 	C 	0.18780 0.39270 0.60870 -1.63700
C 	C 	0.48010 0.02700 0.57302 0.51700
C 	C 	0.52940 0.98400 0.64378 -0.21000
C 	C 	0.48490 0.84760 0.66731 0.31600
C 	C 	0.53140 0.80900 0.73179 0.29500
C 	C 	0.62420 0.90720 0.77576 -0.22900
C 	C 	0.66810 0.04290 0.75227 0.28700
C 	C 	0.62230 0.08130 0.68768 0.29300
C 	C 	0.67580 0.86710 0.84649 0.47000
C 	C 	0.61290 0.35570 0.46899 0.50300
C 	C 	0.70800 0.50810 0.47071 -0.20300
C 	C 	0.71490 0.59040 0.52971 0.28600
C 	C 	0.79430 0.73070 0.52908 0.30000
C 	C 	0.86790 0.79450 0.47038 -0.25300
C 	C 	0.85960 0.71330 0.41172 0.29100
C 	C 	0.78220 0.57340 0.41211 0.28500
C 	C 	0.95830 0.94850 0.47037 0.50900
C 	C 	0.94430 0.71220 0.07670 0.75500
C 	C 	0.81220 0.60730 0.10870 -1.58600
C 	C 	0.51990 0.97300 0.07302 0.52100
C 	C 	0.47060 0.01600 0.14378 -0.21300
C 	C 	0.51510 0.15240 0.16731 0.31800
C 	C 	0.46860 0.19100 0.23179 0.29600
C 	C 	0.37580 0.09280 0.27576 -0.23000
C 	C 	0.33190 0.95710 0.25227 0.28900
C 	C 	0.37770 0.91870 0.18768 0.29800
C 	C 	0.32420 0.13290 0.34649 0.46800
C 	C 	0.38710 0.64430 0.96899 0.51200
C 	C 	0.29200 0.49190 0.97071 -0.25700
C 	C 	0.28510 0.40960 0.02971 0.33000
C 	C 	0.20570 0.26930 0.02908 0.34500
C 	C 	0.13210 0.20550 0.97038 -0.30800
C 	C 	0.14040 0.28670 0.91172 0.29700
C 	C 	0.21780 0.42660 0.91211 0.29000
C 	C 	0.04170 0.05150 0.97037 0.51700
O 	O 	0.54940 0.98300 0.52310 -0.42400
O 	O 	0.37310 0.09970 0.57214 -0.42900
O 	O 	0.78180 0.79680 0.85217 -0.25900
O 	O 	0.60570 0.91370 0.89820 -0.54900
O 	O 	0.46130 0.34180 0.47945 -0.40100
O 	O 	0.69550 0.26470 0.45670 -0.40700
O 	O 	0.87710 0.04130 0.46035 -0.41400
O 	O 	0.10950 0.96750 0.48133 -0.36900
O 	O 	0.10260 0.26570 0.50567 -0.29300
O 	O 	0.45060 0.01700 0.02310 -0.40100
O 	O 	0.62690 0.90030 0.07214 -0.40800
O 	O 	0.21820 0.20320 0.35217 -0.25500
O 	O 	0.39430 0.08630 0.39820 -0.54300
O 	O 	0.53870 0.65820 0.97945 -0.42100
O 	O 	0.30450 0.73530 0.95670 -0.42500
O 	O 	0.12290 0.95870 0.96035 -0.43200
O 	O 	0.89050 0.03250 0.98133 -0.39200
O 	O 	0.89740 0.73430 0.00567 -0.22100
F 	F 	0.39370 0.74880 0.62676 -0.38600
F 	F 	0.48080 0.67530 0.75233 -0.36100
F 	F 	0.76400 0.14110 0.79156 -0.36100
F 	F 	0.67040 0.21590 0.66721 -0.37200
F 	F 	0.64560 0.53440 0.58844 -0.36300
F 	F 	0.80010 0.80510 0.58811 -0.38100
F 	F 	0.92600 0.77150 0.35282 -0.37100
F 	F 	0.77960 0.49940 0.35330 -0.36100
F 	F 	0.60630 0.25120 0.12676 -0.38100
F 	F 	0.51920 0.32470 0.25233 -0.35900
F 	F 	0.23600 0.85890 0.29156 -0.35800
F 	F 	0.32960 0.78410 0.16721 -0.36900
F 	F 	0.35440 0.46560 0.08844 -0.36200
F 	F 	0.19990 0.19490 0.08811 -0.38100
F 	F 	0.07400 0.22850 0.85282 -0.37500
F 	F 	0.22040 0.50060 0.85330 -0.36400
