data_crystal

_cell_length_a 11.81130
_cell_length_b 13.84790
_cell_length_c 16.33440
_cell_angle_alpha 90.00000
_cell_angle_beta  90.00000
_cell_angle_gamma 112.85100

_symmetry_space_group_name_	'P 1'
_symmetry_space_group_name_H-M	'P 1'

loop_
_symmetry_equiv_pos_as_xyz
  x,y,z

loop_
_atom_site_label
_atom_site_type_symbol
_atom_site_fract_x
_atom_site_fract_y
_atom_site_fract_z
_atom_site_charge
Zn	Zn	0.60331 0.59978 0.45262 1.12200
Zn	Zn	0.74454 0.28345 0.45491 1.16700
Zn	Zn	0.94812 0.87276 0.63131 1.19500
Zn	Zn	0.89669 0.90022 0.95262 1.11700
Zn	Zn	0.75546 0.21655 0.95491 1.16600
Zn	Zn	0.55188 0.62724 0.13131 1.19700
Zn	Zn	0.39669 0.40022 0.54738 1.12100
Zn	Zn	0.25546 0.71655 0.54509 1.16600
Zn	Zn	0.05188 0.12724 0.36869 1.19500
Zn	Zn	0.10331 0.09978 0.04738 1.11700
Zn	Zn	0.24454 0.78345 0.04509 1.16600
Zn	Zn	0.44812 0.37276 0.86869 1.19700
H 	H 	0.89660 0.46100 0.58070 0.07900
H 	H 	0.83320 0.39460 0.70480 0.03400
H 	H 	0.66640 0.37150 0.77450 0.05500
H 	H 	0.82380 0.51950 0.79740 0.03800
H 	H 	0.88180 0.67730 0.74370 0.06700
H 	H 	0.95080 0.56240 0.69160 0.05400
H 	H 	0.60340 0.03900 0.08070 0.07800
H 	H 	0.66680 0.10540 0.20480 0.03300
H 	H 	0.83360 0.12850 0.27450 0.05700
H 	H 	0.67620 0.98050 0.29740 0.03700
H 	H 	0.61820 0.82270 0.24370 0.07000
H 	H 	0.54920 0.93760 0.19160 0.05400
H 	H 	0.10340 0.53900 0.41930 0.07900
H 	H 	0.16680 0.60540 0.29520 0.03400
H 	H 	0.33360 0.62850 0.22550 0.05500
H 	H 	0.17620 0.48050 0.20260 0.03800
H 	H 	0.11820 0.32270 0.25630 0.06700
H 	H 	0.04920 0.43760 0.30840 0.05400
H 	H 	0.39660 0.96100 0.91930 0.07800
H 	H 	0.33320 0.89460 0.79520 0.03300
H 	H 	0.16640 0.87150 0.72550 0.05700
H 	H 	0.32380 0.01950 0.70260 0.03700
H 	H 	0.38180 0.17730 0.75630 0.07000
H 	H 	0.45080 0.06240 0.80840 0.05400
C 	C 	0.75620 0.49280 0.53384 0.41100
C 	C 	0.83310 0.48110 0.60499 -0.14100
C 	C 	0.76590 0.39500 0.66984 -0.06900
C 	C 	0.68290 0.42250 0.72989 -0.14000
C 	C 	0.75630 0.53070 0.76968 -0.08000
C 	C 	0.82360 0.62120 0.71027 -0.12000
C 	C 	0.90240 0.58430 0.65254 -0.08900
C 	C 	0.70580 0.28130 0.64110 0.33000
C 	C 	0.55780 0.40480 0.69389 0.41300
C 	C 	0.69290 0.56340 0.83940 0.34500
C 	C 	0.73570 0.66590 0.67351 0.37400
C 	C 	0.00290 0.66860 0.60368 0.37400
C 	C 	0.74380 0.00720 0.03384 0.40900
C 	C 	0.66690 0.01890 0.10499 -0.14300
C 	C 	0.73410 0.10500 0.16984 -0.06700
C 	C 	0.81710 0.07750 0.22989 -0.14400
C 	C 	0.74370 0.96930 0.26968 -0.07700
C 	C 	0.67640 0.87880 0.21027 -0.12300
C 	C 	0.59760 0.91570 0.15254 -0.08300
C 	C 	0.79420 0.21870 0.14110 0.32900
C 	C 	0.94220 0.09520 0.19389 0.42400
C 	C 	0.80710 0.93660 0.33940 0.33900
C 	C 	0.76430 0.83410 0.17351 0.37500
C 	C 	0.49710 0.83140 0.10368 0.37000
C 	C 	0.24380 0.50720 0.46616 0.41100
C 	C 	0.16690 0.51890 0.39501 -0.14100
C 	C 	0.23410 0.60500 0.33016 -0.06900
C 	C 	0.31710 0.57750 0.27011 -0.14000
C 	C 	0.24370 0.46930 0.23032 -0.08000
C 	C 	0.17640 0.37880 0.28973 -0.12000
C 	C 	0.09760 0.41570 0.34746 -0.08900
C 	C 	0.29420 0.71870 0.35890 0.33000
C 	C 	0.44220 0.59520 0.30611 0.41300
C 	C 	0.30710 0.43660 0.16060 0.34500
C 	C 	0.26430 0.33410 0.32649 0.37400
C 	C 	0.99710 0.33140 0.39632 0.37400
C 	C 	0.25620 0.99280 0.96616 0.40900
C 	C 	0.33310 0.98110 0.89501 -0.14300
C 	C 	0.26590 0.89500 0.83016 -0.06700
C 	C 	0.18290 0.92250 0.77011 -0.14400
C 	C 	0.25630 0.03070 0.73032 -0.07700
C 	C 	0.32360 0.12120 0.78973 -0.12300
C 	C 	0.40240 0.08430 0.84746 -0.08300
C 	C 	0.20580 0.78130 0.85890 0.32900
C 	C 	0.05780 0.90480 0.80611 0.42400
C 	C 	0.19290 0.06340 0.66060 0.33900
C 	C 	0.23570 0.16590 0.82649 0.37500
C 	C 	0.50290 0.16860 0.89632 0.37000
O 	O 	0.73420 0.57392 0.52837 -0.50600
O 	O 	0.72210 0.42138 0.47871 -0.53400
O 	O 	0.74410 0.25400 0.57603 -0.47800
O 	O 	0.63000 0.21772 0.68767 -0.30500
O 	O 	0.54210 0.39453 0.61782 -0.51200
O 	O 	0.47000 0.39503 0.74331 -0.48800
O 	O 	0.61790 0.49492 0.88541 -0.48300
O 	O 	0.72830 0.65929 0.85371 -0.33800
O 	O 	0.62290 0.61398 0.68268 -0.32800
O 	O 	0.77740 0.75487 0.63906 -0.49400
O 	O 	0.02610 0.76362 0.61484 -0.49300
O 	O 	0.06840 0.63623 0.55954 -0.46400
O 	O 	0.76580 0.92608 0.02837 -0.50300
O 	O 	0.77790 0.07862 0.97871 -0.53100
O 	O 	0.75590 0.24600 0.07603 -0.47700
O 	O 	0.87000 0.28228 0.18767 -0.30400
O 	O 	0.95790 0.10547 0.11782 -0.51000
O 	O 	0.03000 0.10497 0.24331 -0.49900
O 	O 	0.88210 0.00508 0.38541 -0.47700
O 	O 	0.77170 0.84071 0.35371 -0.33500
O 	O 	0.87710 0.88602 0.18268 -0.32700
O 	O 	0.72260 0.74513 0.13906 -0.49300
O 	O 	0.47390 0.73638 0.11484 -0.49400
O 	O 	0.43160 0.86377 0.05954 -0.46300
O 	O 	0.26580 0.42608 0.47163 -0.50600
O 	O 	0.27790 0.57862 0.52129 -0.53400
O 	O 	0.25590 0.74600 0.42397 -0.47800
O 	O 	0.37000 0.78228 0.31233 -0.30500
O 	O 	0.45790 0.60547 0.38218 -0.51200
O 	O 	0.53000 0.60497 0.25669 -0.48800
O 	O 	0.38210 0.50508 0.11459 -0.48300
O 	O 	0.27170 0.34071 0.14629 -0.33800
O 	O 	0.37710 0.38602 0.31732 -0.32800
O 	O 	0.22260 0.24513 0.36094 -0.49400
O 	O 	0.97390 0.23638 0.38516 -0.49300
O 	O 	0.93160 0.36377 0.44046 -0.46400
O 	O 	0.23420 0.07392 0.97163 -0.50300
O 	O 	0.22210 0.92138 0.02129 -0.53100
O 	O 	0.24410 0.75400 0.92397 -0.47700
O 	O 	0.13000 0.71772 0.81233 -0.30400
O 	O 	0.04210 0.89453 0.88218 -0.51000
O 	O 	0.97000 0.89503 0.75669 -0.49900
O 	O 	0.11790 0.99492 0.61459 -0.47700
O 	O 	0.22830 0.15929 0.64629 -0.33500
O 	O 	0.12290 0.11398 0.81732 -0.32700
O 	O 	0.27740 0.25487 0.86094 -0.49300
O 	O 	0.52610 0.26362 0.88516 -0.49400
O 	O 	0.56840 0.13623 0.94046 -0.46300
