data_crystal

_cell_length_a 10.68250
_cell_length_b 12.33880
_cell_length_c 17.12600
_cell_angle_alpha 90.00000
_cell_angle_beta  95.44700
_cell_angle_gamma 90.00000

_symmetry_space_group_name_	'P 1'
_symmetry_space_group_name_H-M	'P 1'

loop_
_symmetry_equiv_pos_as_xyz
  x,y,z

loop_
_atom_site_label
_atom_site_type_symbol
_atom_site_fract_x
_atom_site_fract_y
_atom_site_fract_z
_atom_site_charge
Zn	Zn	0.27310 0.26341 0.39909 1.17200
Zn	Zn	0.79308 0.25501 0.54341 1.17400
Zn	Zn	0.22690 0.76341 0.10091 1.17200
Zn	Zn	0.70692 0.75501 0.95659 1.17400
Zn	Zn	0.72690 0.73659 0.60091 1.17200
Zn	Zn	0.20692 0.74499 0.45659 1.17400
Zn	Zn	0.77310 0.23659 0.89909 1.17200
Zn	Zn	0.29308 0.24499 0.04341 1.17400
H 	H 	0.93310 0.36320 0.78730 0.16100
H 	H 	0.99100 0.31820 0.71080 0.16200
H 	H 	0.88380 0.40920 0.70250 0.17100
H 	H 	0.52040 0.05550 0.64420 0.11100
H 	H 	0.64180 0.01520 0.60470 0.08800
H 	H 	0.52840 0.31840 0.33820 0.15500
H 	H 	0.64270 0.36110 0.39740 0.16400
H 	H 	0.65850 0.25320 0.34740 0.17200
H 	H 	0.98040 0.00630 0.32620 0.17000
H 	H 	0.07250 0.09390 0.29320 0.15700
H 	H 	0.12720 0.00490 0.35530 0.15300
H 	H 	0.04320 0.36740 0.57400 0.09100
H 	H 	0.17430 0.30400 0.58350 0.09600
H 	H 	0.38270 0.61490 0.36370 0.16100
H 	H 	0.46430 0.51200 0.39410 0.16800
H 	H 	0.35760 0.49950 0.32260 0.16500
H 	H 	0.56690 0.86320 0.71270 0.16300
H 	H 	0.50900 0.81820 0.78920 0.16300
H 	H 	0.61620 0.90920 0.79750 0.17100
H 	H 	0.97960 0.55550 0.85580 0.11000
H 	H 	0.85820 0.51520 0.89530 0.08800
H 	H 	0.97160 0.81840 0.16180 0.15600
H 	H 	0.85730 0.86110 0.10260 0.16600
H 	H 	0.84150 0.75320 0.15260 0.17300
H 	H 	0.51960 0.50630 0.17380 0.17200
H 	H 	0.42750 0.59390 0.20680 0.15800
H 	H 	0.37280 0.50490 0.14470 0.15400
H 	H 	0.45680 0.86740 0.92600 0.09000
H 	H 	0.32570 0.80400 0.91650 0.09500
H 	H 	0.11730 0.11490 0.13630 0.16100
H 	H 	0.03570 0.01200 0.10590 0.16700
H 	H 	0.14240 0.99950 0.17740 0.16400
H 	H 	0.06690 0.63680 0.21270 0.16200
H 	H 	0.00900 0.68180 0.28920 0.16300
H 	H 	0.11620 0.59080 0.29750 0.17100
H 	H 	0.47960 0.94450 0.35580 0.11100
H 	H 	0.35820 0.98480 0.39530 0.08800
H 	H 	0.47160 0.68160 0.66180 0.15500
H 	H 	0.35730 0.63890 0.60260 0.16400
H 	H 	0.34150 0.74680 0.65260 0.17200
H 	H 	0.01960 0.99370 0.67380 0.17000
H 	H 	0.92750 0.90610 0.70680 0.15700
H 	H 	0.87280 0.99510 0.64470 0.15300
H 	H 	0.95680 0.63260 0.42600 0.09100
H 	H 	0.82570 0.69600 0.41650 0.09600
H 	H 	0.61730 0.38510 0.63630 0.16100
H 	H 	0.53570 0.48800 0.60590 0.16800
H 	H 	0.64240 0.50050 0.67740 0.16500
H 	H 	0.43310 0.13680 0.28730 0.16300
H 	H 	0.49100 0.18180 0.21080 0.16300
H 	H 	0.38380 0.09080 0.20250 0.17100
H 	H 	0.02040 0.44450 0.14420 0.11000
H 	H 	0.14180 0.48480 0.10470 0.08800
H 	H 	0.02840 0.18160 0.83820 0.15600
H 	H 	0.14270 0.13890 0.89740 0.16600
H 	H 	0.15850 0.24680 0.84740 0.17300
H 	H 	0.48040 0.49370 0.82620 0.17200
H 	H 	0.57250 0.40610 0.79320 0.15800
H 	H 	0.62720 0.49510 0.85530 0.15400
H 	H 	0.54320 0.13260 0.07400 0.09000
H 	H 	0.67430 0.19600 0.08350 0.09500
H 	H 	0.88270 0.88510 0.86370 0.16100
H 	H 	0.96430 0.98800 0.89410 0.16700
H 	H 	0.85760 0.00050 0.82260 0.16400
C 	C 	0.91440 0.34470 0.73178 -0.61100
C 	C 	0.81620 0.25866 0.72369 0.21600
C 	C 	0.67680 0.14740 0.67587 0.14400
C 	C 	0.59440 0.08040 0.61839 -0.33500
C 	C 	0.54920 0.13904 0.54416 0.16100
C 	C 	0.55340 0.23056 0.43914 0.21700
C 	C 	0.59970 0.29640 0.37507 -0.61000
C 	C 	0.05490 0.05140 0.33920 -0.57400
C 	C 	0.03180 0.12590 0.40445 0.22600
C 	C 	0.05550 0.24949 0.49145 0.15900
C 	C 	0.11050 0.33666 0.54474 -0.35500
C 	C 	0.17080 0.42684 0.50304 0.16100
C 	C 	0.28610 0.51058 0.42923 0.22000
C 	C 	0.38100 0.53650 0.37245 -0.60400
C 	C 	0.58560 0.84470 0.76822 -0.61200
C 	C 	0.68380 0.75866 0.77631 0.21700
C 	C 	0.82320 0.64740 0.82413 0.14400
C 	C 	0.90560 0.58040 0.88161 -0.33500
C 	C 	0.95080 0.63904 0.95584 0.16000
C 	C 	0.94660 0.73056 0.06086 0.22000
C 	C 	0.90030 0.79640 0.12493 -0.61300
C 	C 	0.44510 0.55140 0.16080 -0.57900
C 	C 	0.46820 0.62590 0.09555 0.22600
C 	C 	0.44450 0.74949 0.00855 0.15900
C 	C 	0.38950 0.83666 0.95526 -0.35400
C 	C 	0.32920 0.92684 0.99696 0.15800
C 	C 	0.21390 0.01058 0.07077 0.21900
C 	C 	0.11900 0.03650 0.12755 -0.60200
C 	C 	0.08560 0.65530 0.26822 -0.61100
C 	C 	0.18380 0.74134 0.27631 0.21600
C 	C 	0.32320 0.85260 0.32413 0.14400
C 	C 	0.40560 0.91960 0.38161 -0.33500
C 	C 	0.45080 0.86096 0.45584 0.16100
C 	C 	0.44660 0.76944 0.56086 0.21700
C 	C 	0.40030 0.70360 0.62493 -0.61000
C 	C 	0.94510 0.94860 0.66080 -0.57400
C 	C 	0.96820 0.87410 0.59555 0.22600
C 	C 	0.94450 0.75051 0.50855 0.15900
C 	C 	0.88950 0.66334 0.45526 -0.35500
C 	C 	0.82920 0.57316 0.49696 0.16100
C 	C 	0.71390 0.48942 0.57077 0.22000
C 	C 	0.61900 0.46350 0.62755 -0.60400
C 	C 	0.41440 0.15530 0.23178 -0.61200
C 	C 	0.31620 0.24134 0.22369 0.21700
C 	C 	0.17680 0.35260 0.17587 0.14400
C 	C 	0.09440 0.41960 0.11839 -0.33500
C 	C 	0.04920 0.36096 0.04416 0.16000
C 	C 	0.05340 0.26944 0.93914 0.22000
C 	C 	0.09970 0.20360 0.87507 -0.61300
C 	C 	0.55490 0.44860 0.83920 -0.57900
C 	C 	0.53180 0.37410 0.90445 0.22600
C 	C 	0.55550 0.25051 0.99145 0.15900
C 	C 	0.61050 0.16334 0.04474 -0.35400
C 	C 	0.67080 0.07316 0.00304 0.15800
C 	C 	0.78610 0.98942 0.92923 0.21900
C 	C 	0.88100 0.96350 0.87245 -0.60200
N 	N 	0.11679 0.20047 0.43572 -0.33300
N 	N 	0.92550 0.12692 0.43777 -0.16200
N 	N 	0.94199 0.20777 0.49447 -0.28500
N 	N 	0.25525 0.40978 0.44935 -0.33000
N 	N 	0.14891 0.52992 0.51586 -0.14600
N 	N 	0.22433 0.58423 0.46664 -0.29100
N 	N 	0.43459 0.20097 0.44475 -0.29500
N 	N 	0.43151 0.14119 0.51346 -0.14900
N 	N 	0.62923 0.19308 0.50035 -0.33200
N 	N 	0.76885 0.21583 0.65506 -0.33600
N 	N 	0.66877 0.14441 0.75174 -0.15300
N 	N 	0.75964 0.21758 0.78284 -0.29500
N 	N 	0.38321 0.70047 0.06428 -0.33300
N 	N 	0.57450 0.62692 0.06223 -0.16200
N 	N 	0.55801 0.70777 0.00553 -0.28400
N 	N 	0.24475 0.90978 0.05065 -0.32900
N 	N 	0.35109 0.02992 0.98414 -0.14400
N 	N 	0.27567 0.08423 0.03336 -0.29200
N 	N 	0.06541 0.70097 0.05525 -0.29600
N 	N 	0.06849 0.64119 0.98654 -0.14800
N 	N 	0.87077 0.69308 0.99965 -0.33300
N 	N 	0.73115 0.71583 0.84494 -0.33600
N 	N 	0.83123 0.64441 0.74826 -0.15300
N 	N 	0.74036 0.71758 0.71716 -0.29500
N 	N 	0.88321 0.79953 0.56428 -0.33300
N 	N 	0.07450 0.87308 0.56223 -0.16200
N 	N 	0.05801 0.79223 0.50553 -0.28500
N 	N 	0.74475 0.59022 0.55065 -0.33000
N 	N 	0.85109 0.47008 0.48414 -0.14600
N 	N 	0.77567 0.41577 0.53336 -0.29100
N 	N 	0.56541 0.79903 0.55525 -0.29500
N 	N 	0.56849 0.85881 0.48654 -0.14900
N 	N 	0.37077 0.80692 0.49965 -0.33200
N 	N 	0.23115 0.78417 0.34494 -0.33600
N 	N 	0.33123 0.85559 0.24826 -0.15300
N 	N 	0.24036 0.78242 0.21716 -0.29500
N 	N 	0.61679 0.29953 0.93572 -0.33300
N 	N 	0.42550 0.37308 0.93777 -0.16200
N 	N 	0.44199 0.29223 0.99447 -0.28400
N 	N 	0.75525 0.09022 0.94935 -0.32900
N 	N 	0.64891 0.97008 0.01586 -0.14400
N 	N 	0.72433 0.91577 0.96664 -0.29200
N 	N 	0.93459 0.29903 0.94475 -0.29600
N 	N 	0.93151 0.35881 0.01346 -0.14800
N 	N 	0.12923 0.30692 0.00035 -0.33300
N 	N 	0.26885 0.28417 0.15506 -0.33600
N 	N 	0.16877 0.35559 0.25174 -0.15300
N 	N 	0.25964 0.28242 0.28284 -0.29500
