data_crystal

_cell_length_a 10.87700
_cell_length_b 12.82900
_cell_length_c 16.88100
_cell_angle_alpha 90.00000
_cell_angle_beta  94.44500
_cell_angle_gamma 90.00000

_symmetry_space_group_name_	'P 1'
_symmetry_space_group_name_H-M	'P 1'

loop_
_symmetry_equiv_pos_as_xyz
  x,y,z

loop_
_atom_site_label
_atom_site_type_symbol
_atom_site_fract_x
_atom_site_fract_y
_atom_site_fract_z
_atom_site_charge
Zn	Zn	0.27607 0.27314 0.40534 1.17200
Zn	Zn	0.79473 0.26017 0.54491 1.17200
Zn	Zn	0.22393 0.77314 0.09466 1.17200
Zn	Zn	0.70527 0.76017 0.95509 1.17200
Zn	Zn	0.72393 0.72686 0.59466 1.17300
Zn	Zn	0.20527 0.73983 0.45509 1.17300
Zn	Zn	0.77607 0.22686 0.90534 1.17300
Zn	Zn	0.29473 0.23983 0.04491 1.17300
H 	H 	0.93340 0.35160 0.79330 0.15900
H 	H 	0.99320 0.30610 0.71680 0.16300
H 	H 	0.89150 0.39630 0.70690 0.16700
H 	H 	0.52570 0.06360 0.64560 0.11200
H 	H 	0.64360 0.02860 0.60120 0.09000
H 	H 	0.52230 0.33480 0.34390 0.15100
H 	H 	0.62800 0.38170 0.40490 0.16400
H 	H 	0.65550 0.28110 0.35310 0.16700
H 	H 	0.01640 0.00540 0.34380 0.16900
H 	H 	0.11060 0.08740 0.31050 0.15200
H 	H 	0.15590 0.01050 0.38150 0.15200
H 	H 	0.03360 0.37720 0.57440 0.09500
H 	H 	0.16390 0.32010 0.58920 0.09600
H 	H 	0.36990 0.61290 0.35910 0.15800
H 	H 	0.44930 0.51310 0.38800 0.16400
H 	H 	0.34330 0.50240 0.31730 0.16700
H 	H 	0.56660 0.85160 0.70670 0.15900
H 	H 	0.50680 0.80610 0.78320 0.16300
H 	H 	0.60850 0.89630 0.79310 0.16700
H 	H 	0.97430 0.56360 0.85440 0.11100
H 	H 	0.85640 0.52860 0.89880 0.08900
H 	H 	0.97770 0.83480 0.15610 0.15300
H 	H 	0.87200 0.88170 0.09510 0.16600
H 	H 	0.84450 0.78110 0.14690 0.16800
H 	H 	0.48360 0.50540 0.15620 0.17100
H 	H 	0.38940 0.58740 0.18950 0.15300
H 	H 	0.34410 0.51050 0.11850 0.15300
H 	H 	0.46640 0.87720 0.92560 0.09400
H 	H 	0.33610 0.82010 0.91080 0.09600
H 	H 	0.13010 0.11290 0.14090 0.15700
H 	H 	0.05070 0.01310 0.11200 0.16200
H 	H 	0.15670 0.00240 0.18270 0.16500
H 	H 	0.06660 0.64840 0.20670 0.15900
H 	H 	0.00680 0.69390 0.28320 0.16300
H 	H 	0.10850 0.60370 0.29310 0.16700
H 	H 	0.47430 0.93640 0.35440 0.11200
H 	H 	0.35640 0.97140 0.39880 0.09000
H 	H 	0.47770 0.66520 0.65610 0.15100
H 	H 	0.37200 0.61830 0.59510 0.16400
H 	H 	0.34450 0.71890 0.64690 0.16700
H 	H 	0.98360 0.99460 0.65620 0.16900
H 	H 	0.88940 0.91260 0.68950 0.15200
H 	H 	0.84410 0.98950 0.61850 0.15200
H 	H 	0.96640 0.62280 0.42560 0.09500
H 	H 	0.83610 0.67990 0.41080 0.09600
H 	H 	0.63010 0.38710 0.64090 0.15800
H 	H 	0.55070 0.48690 0.61200 0.16400
H 	H 	0.65670 0.49760 0.68270 0.16700
H 	H 	0.43340 0.14840 0.29330 0.15900
H 	H 	0.49320 0.19390 0.21680 0.16300
H 	H 	0.39150 0.10370 0.20690 0.16700
H 	H 	0.02570 0.43640 0.14560 0.11100
H 	H 	0.14360 0.47140 0.10120 0.08900
H 	H 	0.02230 0.16520 0.84390 0.15300
H 	H 	0.12800 0.11830 0.90490 0.16600
H 	H 	0.15550 0.21890 0.85310 0.16800
H 	H 	0.51640 0.49460 0.84380 0.17100
H 	H 	0.61060 0.41260 0.81050 0.15300
H 	H 	0.65590 0.48950 0.88150 0.15300
H 	H 	0.53360 0.12280 0.07440 0.09400
H 	H 	0.66390 0.17990 0.08920 0.09600
H 	H 	0.86990 0.88710 0.85910 0.15700
H 	H 	0.94930 0.98690 0.88800 0.16200
H 	H 	0.84330 0.99760 0.81730 0.16500
C 	C 	0.91760 0.33370 0.73700 -0.60600
C 	C 	0.81840 0.25340 0.72770 0.21500
C 	C 	0.67990 0.15100 0.67800 0.14800
C 	C 	0.59750 0.08980 0.61880 -0.33900
C 	C 	0.55180 0.15150 0.54760 0.16100
C 	C 	0.55100 0.24880 0.44520 0.21400
C 	C 	0.59280 0.31750 0.38130 -0.60400
C 	C 	0.08630 0.05160 0.35820 -0.57000
C 	C 	0.05020 0.12990 0.41680 0.22300
C 	C 	0.05660 0.25880 0.49600 0.15900
C 	C 	0.10350 0.34760 0.54750 -0.35700
C 	C 	0.16350 0.43380 0.50420 0.16400
C 	C 	0.27580 0.51290 0.42680 0.22000
C 	C 	0.36750 0.53740 0.36770 -0.60300
C 	C 	0.58240 0.83370 0.76300 -0.60600
C 	C 	0.68160 0.75340 0.77230 0.21500
C 	C 	0.82010 0.65100 0.82200 0.14800
C 	C 	0.90250 0.58980 0.88120 -0.33800
C 	C 	0.94820 0.65150 0.95240 0.15900
C 	C 	0.94900 0.74880 0.05480 0.21800
C 	C 	0.90720 0.81750 0.11870 -0.60700
C 	C 	0.41370 0.55160 0.14180 -0.57200
C 	C 	0.44980 0.62990 0.08320 0.22500
C 	C 	0.44340 0.75880 0.00400 0.16100
C 	C 	0.39650 0.84760 0.95250 -0.35700
C 	C 	0.33650 0.93380 0.99580 0.16100
C 	C 	0.22420 0.01290 0.07320 0.21700
C 	C 	0.13250 0.03740 0.13230 -0.59900
C 	C 	0.08240 0.66630 0.26300 -0.60600
C 	C 	0.18160 0.74660 0.27230 0.21500
C 	C 	0.32010 0.84900 0.32200 0.14800
C 	C 	0.40250 0.91020 0.38120 -0.33900
C 	C 	0.44820 0.84850 0.45240 0.16100
C 	C 	0.44900 0.75120 0.55480 0.21400
C 	C 	0.40720 0.68250 0.61870 -0.60400
C 	C 	0.91370 0.94840 0.64180 -0.57000
C 	C 	0.94980 0.87010 0.58320 0.22300
C 	C 	0.94340 0.74120 0.50400 0.15900
C 	C 	0.89650 0.65240 0.45250 -0.35700
C 	C 	0.83650 0.56620 0.49580 0.16400
C 	C 	0.72420 0.48710 0.57320 0.22000
C 	C 	0.63250 0.46260 0.63230 -0.60300
C 	C 	0.41760 0.16630 0.23700 -0.60600
C 	C 	0.31840 0.24660 0.22770 0.21500
C 	C 	0.17990 0.34900 0.17800 0.14800
C 	C 	0.09750 0.41020 0.11880 -0.33800
C 	C 	0.05180 0.34850 0.04760 0.15900
C 	C 	0.05100 0.25120 0.94520 0.21800
C 	C 	0.09280 0.18250 0.88130 -0.60700
C 	C 	0.58630 0.44840 0.85820 -0.57200
C 	C 	0.55020 0.37010 0.91680 0.22500
C 	C 	0.55660 0.24120 0.99600 0.16100
C 	C 	0.60350 0.15240 0.04750 -0.35700
C 	C 	0.66350 0.06620 0.00420 0.16100
C 	C 	0.77580 0.98710 0.92680 0.21700
C 	C 	0.86750 0.96260 0.86770 -0.59900
N 	N 	0.12420 0.20910 0.44460 -0.33200
N 	N 	0.94120 0.13040 0.44750 -0.15900
N 	N 	0.94720 0.21480 0.49870 -0.28200
N 	N 	0.24700 0.41610 0.44956 -0.33100
N 	N 	0.14180 0.53260 0.51574 -0.14500
N 	N 	0.21490 0.58450 0.46450 -0.29100
N 	N 	0.43590 0.21780 0.45200 -0.29600
N 	N 	0.43550 0.15430 0.51900 -0.14900
N 	N 	0.62760 0.20930 0.50425 -0.33200
N 	N 	0.77080 0.21650 0.65742 -0.33500
N 	N 	0.67140 0.14480 0.75500 -0.15100
N 	N 	0.76170 0.21280 0.78720 -0.29400
N 	N 	0.37580 0.70910 0.05540 -0.33300
N 	N 	0.55880 0.63040 0.05250 -0.16000
N 	N 	0.55280 0.71480 0.00130 -0.28300
N 	N 	0.25300 0.91610 0.05044 -0.32800
N 	N 	0.35820 0.03260 0.98426 -0.14300
N 	N 	0.28510 0.08450 0.03550 -0.29100
N 	N 	0.06410 0.71780 0.04800 -0.29700
N 	N 	0.06450 0.65430 0.98100 -0.14800
N 	N 	0.87240 0.70930 0.99575 -0.33300
N 	N 	0.72920 0.71650 0.84258 -0.33500
N 	N 	0.82860 0.64480 0.74500 -0.15100
N 	N 	0.73830 0.71280 0.71280 -0.29400
N 	N 	0.87580 0.79090 0.55540 -0.33200
N 	N 	0.05880 0.86960 0.55250 -0.15900
N 	N 	0.05280 0.78520 0.50130 -0.28200
N 	N 	0.75300 0.58390 0.55044 -0.33100
N 	N 	0.85820 0.46740 0.48426 -0.14500
N 	N 	0.78510 0.41550 0.53550 -0.29100
N 	N 	0.56410 0.78220 0.54800 -0.29600
N 	N 	0.56450 0.84570 0.48100 -0.14900
N 	N 	0.37240 0.79070 0.49575 -0.33200
N 	N 	0.22920 0.78350 0.34258 -0.33500
N 	N 	0.32860 0.85520 0.24500 -0.15100
N 	N 	0.23830 0.78720 0.21280 -0.29400
N 	N 	0.62420 0.29090 0.94460 -0.33300
N 	N 	0.44120 0.36960 0.94750 -0.16000
N 	N 	0.44720 0.28520 0.99870 -0.28300
N 	N 	0.74700 0.08390 0.94956 -0.32800
N 	N 	0.64180 0.96740 0.01574 -0.14300
N 	N 	0.71490 0.91550 0.96450 -0.29100
N 	N 	0.93590 0.28220 0.95200 -0.29700
N 	N 	0.93550 0.34570 0.01900 -0.14800
N 	N 	0.12760 0.29070 0.00425 -0.33300
N 	N 	0.27080 0.28350 0.15742 -0.33500
N 	N 	0.17140 0.35520 0.25500 -0.15100
N 	N 	0.26170 0.28720 0.28720 -0.29400
