data_crystal

_cell_length_a 7.50930
_cell_length_b 9.91200
_cell_length_c 17.45700
_cell_angle_alpha 90.00000
_cell_angle_beta  90.00000
_cell_angle_gamma 90.00000

_symmetry_space_group_name_	'P 1'
_symmetry_space_group_name_H-M	'P 1'

loop_
_symmetry_equiv_pos_as_xyz
  x,y,z

loop_
_atom_site_label
_atom_site_type_symbol
_atom_site_fract_x
_atom_site_fract_y
_atom_site_fract_z
_atom_site_charge
Zn	Zn	0.47228 0.75000 0.73402 1.17100
Zn	Zn	0.02772 0.25000 0.23402 1.16900
Zn	Zn	0.52772 0.25000 0.26598 1.17000
Zn	Zn	0.97228 0.75000 0.76598 1.16800
Zn	Zn	0.61244 0.25000 0.92227 1.18900
Zn	Zn	0.88756 0.75000 0.42227 1.18900
Zn	Zn	0.38756 0.75000 0.07773 1.18900
Zn	Zn	0.11244 0.25000 0.57773 1.18900
H 	H 	0.93700 0.03130 0.87750 -0.02600
H 	H 	0.44180 0.04420 0.81530 -0.02600
H 	H 	0.56300 0.96870 0.37750 -0.02500
H 	H 	0.05820 0.95580 0.31530 -0.01900
H 	H 	0.06300 0.53130 0.12250 -0.02700
H 	H 	0.55820 0.54420 0.18470 -0.02600
H 	H 	0.43700 0.46870 0.62250 -0.02600
H 	H 	0.94180 0.45580 0.68470 -0.02800
H 	H 	0.06300 0.96870 0.12250 -0.02600
H 	H 	0.55820 0.95580 0.18470 -0.02600
H 	H 	0.43700 0.03130 0.62250 -0.02500
H 	H 	0.94180 0.04420 0.68470 -0.01900
H 	H 	0.93700 0.46870 0.87750 -0.02700
H 	H 	0.44180 0.45580 0.81530 -0.02600
H 	H 	0.56300 0.53130 0.37750 -0.02600
H 	H 	0.05820 0.54420 0.31530 -0.02800
H 	H 	0.52860 0.75000 0.91770 -0.02500
H 	H 	0.02280 0.75000 0.96180 -0.01600
H 	H 	0.97140 0.25000 0.41770 -0.02000
H 	H 	0.47720 0.25000 0.46180 -0.01900
H 	H 	0.47140 0.25000 0.08230 -0.02500
H 	H 	0.97720 0.25000 0.03820 -0.01600
H 	H 	0.02860 0.75000 0.58230 -0.02000
H 	H 	0.52280 0.75000 0.53820 -0.01900
C 	C 	0.82860 0.01000 0.85480 0.11000
C 	C 	0.55970 0.01720 0.82080 0.09500
C 	C 	0.67140 0.99000 0.35480 0.10500
C 	C 	0.94030 0.98280 0.32080 0.08400
C 	C 	0.17140 0.51000 0.14520 0.10900
C 	C 	0.44030 0.51720 0.17920 0.09500
C 	C 	0.32860 0.49000 0.64520 0.10900
C 	C 	0.05970 0.48280 0.67920 0.09900
C 	C 	0.17140 0.99000 0.14520 0.11000
C 	C 	0.44030 0.98280 0.17920 0.09500
C 	C 	0.32860 0.01000 0.64520 0.10500
C 	C 	0.05970 0.01720 0.67920 0.08400
C 	C 	0.82860 0.49000 0.85480 0.10900
C 	C 	0.55970 0.48280 0.82080 0.09500
C 	C 	0.67140 0.51000 0.35480 0.10900
C 	C 	0.94030 0.51720 0.32080 0.09900
C 	C 	0.40540 0.75000 0.91230 0.08400
C 	C 	0.13130 0.75000 0.93610 0.11500
C 	C 	0.09460 0.25000 0.41230 0.07600
C 	C 	0.36870 0.25000 0.43610 0.11500
C 	C 	0.59460 0.25000 0.08770 0.08400
C 	C 	0.86870 0.25000 0.06390 0.11500
C 	C 	0.90540 0.75000 0.58770 0.07600
C 	C 	0.63130 0.75000 0.56390 0.11500
N 	N 	0.62640 0.90900 0.78820 -0.22800
N 	N 	0.67950 0.08460 0.86280 -0.29000
N 	N 	0.80260 0.90310 0.81080 -0.23500
N 	N 	0.87360 0.09100 0.28820 -0.22200
N 	N 	0.82050 0.91540 0.36280 -0.28800
N 	N 	0.69740 0.09690 0.31080 -0.23100
N 	N 	0.37360 0.40900 0.21180 -0.22800
N 	N 	0.32050 0.58460 0.13720 -0.29000
N 	N 	0.19740 0.40310 0.18920 -0.23300
N 	N 	0.12640 0.59100 0.71180 -0.22700
N 	N 	0.17950 0.41540 0.63720 -0.29000
N 	N 	0.30260 0.59690 0.68920 -0.23200
N 	N 	0.37360 0.09100 0.21180 -0.22800
N 	N 	0.32050 0.91540 0.13720 -0.29000
N 	N 	0.19740 0.09690 0.18920 -0.23500
N 	N 	0.12640 0.90900 0.71180 -0.22200
N 	N 	0.17950 0.08460 0.63720 -0.28800
N 	N 	0.30260 0.90310 0.68920 -0.23100
N 	N 	0.62640 0.59100 0.78820 -0.22800
N 	N 	0.67950 0.41540 0.86280 -0.29000
N 	N 	0.80260 0.59690 0.81080 -0.23300
N 	N 	0.87360 0.40900 0.28820 -0.22700
N 	N 	0.82050 0.58460 0.36280 -0.29000
N 	N 	0.69740 0.40310 0.31080 -0.23200
N 	N 	0.32340 0.75000 0.84540 -0.21700
N 	N 	0.14650 0.75000 0.86190 -0.23100
N 	N 	0.29120 0.75000 0.97180 -0.29200
N 	N 	0.17660 0.25000 0.34540 -0.21700
N 	N 	0.35350 0.25000 0.36190 -0.23200
N 	N 	0.20880 0.25000 0.47180 -0.29100
N 	N 	0.67660 0.25000 0.15460 -0.21700
N 	N 	0.85350 0.25000 0.13810 -0.23100
N 	N 	0.70880 0.25000 0.02820 -0.29200
N 	N 	0.82340 0.75000 0.65460 -0.21700
N 	N 	0.64650 0.75000 0.63810 -0.23200
N 	N 	0.79120 0.75000 0.52820 -0.29100
Cl	Cl	0.31110 0.25000 0.92879 -0.57900
Cl	Cl	0.18890 0.75000 0.42879 -0.57700
Cl	Cl	0.68890 0.75000 0.07121 -0.57900
Cl	Cl	0.81110 0.25000 0.57121 -0.57700
