data_crystal

_cell_length_a 12.66720
_cell_length_b 12.66720
_cell_length_c 25.43990
_cell_angle_alpha 90.00000
_cell_angle_beta  90.00000
_cell_angle_gamma 90.00000

_symmetry_space_group_name_	'P 1'
_symmetry_space_group_name_H-M	'P 1'

loop_
_symmetry_equiv_pos_as_xyz
  x,y,z

loop_
_atom_site_label
_atom_site_type_symbol
_atom_site_fract_x
_atom_site_fract_y
_atom_site_fract_z
_atom_site_charge
Zn	Zn	0.03948 0.93328 0.43741 1.18100
Zn	Zn	0.46052 0.56672 0.43741 1.18100
Zn	Zn	0.56672 0.03948 0.43741 1.18100
Zn	Zn	0.93328 0.46052 0.43741 1.18100
Zn	Zn	0.46052 0.93328 0.06259 1.18100
Zn	Zn	0.03948 0.56672 0.06259 1.18100
Zn	Zn	0.93328 0.03948 0.06259 1.18100
Zn	Zn	0.56672 0.46052 0.06259 1.18100
Zn	Zn	0.96052 0.06672 0.56259 1.18100
Zn	Zn	0.53948 0.43328 0.56259 1.18100
Zn	Zn	0.43328 0.96052 0.56259 1.18100
Zn	Zn	0.06672 0.53948 0.56259 1.18100
Zn	Zn	0.53948 0.06672 0.93741 1.18100
Zn	Zn	0.96052 0.43328 0.93741 1.18100
Zn	Zn	0.06672 0.96052 0.93741 1.18200
Zn	Zn	0.43328 0.53948 0.93741 1.18200
H 	H 	0.86030 0.95170 0.35390 0.16100
H 	H 	0.74410 0.96950 0.35450 0.16300
H 	H 	0.07010 0.92500 0.23720 0.05500
H 	H 	0.31660 0.92890 0.33460 0.04100
H 	H 	0.72840 0.05930 0.52820 -0.04300
H 	H 	0.63970 0.54830 0.35390 0.16000
H 	H 	0.75590 0.53050 0.35450 0.16300
H 	H 	0.42990 0.57500 0.23720 0.05500
H 	H 	0.18340 0.57110 0.33460 0.04100
H 	H 	0.77160 0.44070 0.52820 -0.04400
H 	H 	0.54830 0.86030 0.35390 0.16000
H 	H 	0.53050 0.74410 0.35450 0.16300
H 	H 	0.57500 0.07010 0.23720 0.05500
H 	H 	0.57110 0.31660 0.33460 0.04100
H 	H 	0.44070 0.72840 0.52820 -0.04300
H 	H 	0.95170 0.63970 0.35390 0.16000
H 	H 	0.96950 0.75590 0.35450 0.16300
H 	H 	0.92500 0.42990 0.23720 0.05500
H 	H 	0.92890 0.18340 0.33460 0.04000
H 	H 	0.05930 0.77160 0.52820 -0.04400
H 	H 	0.63970 0.95170 0.14610 0.16000
H 	H 	0.75590 0.96950 0.14550 0.16300
H 	H 	0.42990 0.92500 0.26280 0.05500
H 	H 	0.18340 0.92890 0.16540 0.04000
H 	H 	0.77160 0.05930 0.97180 -0.04300
H 	H 	0.86030 0.54830 0.14610 0.16000
H 	H 	0.74410 0.53050 0.14550 0.16300
H 	H 	0.07010 0.57500 0.26280 0.05500
H 	H 	0.31660 0.57110 0.16540 0.04100
H 	H 	0.72840 0.44070 0.97180 -0.04400
H 	H 	0.95170 0.86030 0.14610 0.16100
H 	H 	0.96950 0.74410 0.14550 0.16300
H 	H 	0.92500 0.07010 0.26280 0.05500
H 	H 	0.92890 0.31660 0.16540 0.04100
H 	H 	0.05930 0.72840 0.97180 -0.04300
H 	H 	0.54830 0.63970 0.14610 0.16000
H 	H 	0.53050 0.75590 0.14550 0.16300
H 	H 	0.57500 0.42990 0.26280 0.05500
H 	H 	0.57110 0.18340 0.16540 0.04100
H 	H 	0.44070 0.77160 0.97180 -0.04400
H 	H 	0.13970 0.04830 0.64610 0.16100
H 	H 	0.25590 0.03050 0.64550 0.16300
H 	H 	0.92990 0.07500 0.76280 0.05500
H 	H 	0.68340 0.07110 0.66540 0.04100
H 	H 	0.27160 0.94070 0.47180 -0.04300
H 	H 	0.36030 0.45170 0.64610 0.16000
H 	H 	0.24410 0.46950 0.64550 0.16300
H 	H 	0.57010 0.42500 0.76280 0.05500
H 	H 	0.81660 0.42890 0.66540 0.04100
H 	H 	0.22840 0.55930 0.47180 -0.04400
H 	H 	0.45170 0.13970 0.64610 0.16000
H 	H 	0.46950 0.25590 0.64550 0.16300
H 	H 	0.42500 0.92990 0.76280 0.05500
H 	H 	0.42890 0.68340 0.66540 0.04100
H 	H 	0.55930 0.27160 0.47180 -0.04300
H 	H 	0.04830 0.36030 0.64610 0.16000
H 	H 	0.03050 0.24410 0.64550 0.16300
H 	H 	0.07500 0.57010 0.76280 0.05500
H 	H 	0.07110 0.81660 0.66540 0.04000
H 	H 	0.94070 0.22840 0.47180 -0.04400
H 	H 	0.36030 0.04830 0.85390 0.16000
H 	H 	0.24410 0.03050 0.85450 0.16300
H 	H 	0.57010 0.07500 0.73720 0.05500
H 	H 	0.81660 0.07110 0.83460 0.04000
H 	H 	0.22840 0.94070 0.02820 -0.04300
H 	H 	0.13970 0.45170 0.85390 0.16000
H 	H 	0.25590 0.46950 0.85450 0.16300
H 	H 	0.92990 0.42500 0.73720 0.05500
H 	H 	0.68340 0.42890 0.83460 0.04100
H 	H 	0.27160 0.55930 0.02820 -0.04400
H 	H 	0.04830 0.13970 0.85390 0.16100
H 	H 	0.03050 0.25590 0.85450 0.16300
H 	H 	0.07500 0.92990 0.73720 0.05500
H 	H 	0.07110 0.68340 0.83460 0.04100
H 	H 	0.94070 0.27160 0.02820 -0.04300
H 	H 	0.45170 0.36030 0.85390 0.16000
H 	H 	0.46950 0.24410 0.85450 0.16300
H 	H 	0.42500 0.57010 0.73720 0.05500
H 	H 	0.42890 0.81660 0.83460 0.04100
H 	H 	0.55930 0.22840 0.02820 -0.04400
C 	C 	0.10710 0.92880 0.33889 0.32900
C 	C 	0.18220 0.92690 0.29287 -0.06900
C 	C 	0.14270 0.92630 0.24250 -0.02800
C 	C 	0.28940 0.92760 0.30064 -0.01500
C 	C 	0.80880 0.99580 0.42104 0.20100
C 	C 	0.76790 0.03990 0.49889 0.08500
C 	C 	0.39290 0.57120 0.33889 0.32800
C 	C 	0.31780 0.57310 0.29287 -0.06800
C 	C 	0.35730 0.57370 0.24250 -0.02800
C 	C 	0.21060 0.57240 0.30064 -0.01500
C 	C 	0.69120 0.50420 0.42104 0.20000
C 	C 	0.73210 0.46010 0.49889 0.08500
C 	C 	0.57120 0.10710 0.33889 0.32900
C 	C 	0.57310 0.18220 0.29287 -0.06800
C 	C 	0.57370 0.14270 0.24250 -0.02800
C 	C 	0.57240 0.28940 0.30064 -0.01500
C 	C 	0.50420 0.80880 0.42104 0.20000
C 	C 	0.46010 0.76790 0.49889 0.08500
C 	C 	0.92880 0.39290 0.33889 0.32800
C 	C 	0.92690 0.31780 0.29287 -0.06800
C 	C 	0.92630 0.35730 0.24250 -0.02800
C 	C 	0.92760 0.21060 0.30064 -0.01500
C 	C 	0.99580 0.69120 0.42104 0.20100
C 	C 	0.03990 0.73210 0.49889 0.08500
C 	C 	0.39290 0.92880 0.16111 0.32800
C 	C 	0.31780 0.92690 0.20713 -0.06800
C 	C 	0.35730 0.92630 0.25750 -0.02800
C 	C 	0.21060 0.92760 0.19936 -0.01500
C 	C 	0.69120 0.99580 0.07896 0.20200
C 	C 	0.73210 0.03990 0.00111 0.08400
C 	C 	0.10710 0.57120 0.16111 0.32900
C 	C 	0.18220 0.57310 0.20713 -0.06800
C 	C 	0.14270 0.57370 0.25750 -0.02800
C 	C 	0.28940 0.57240 0.19936 -0.01500
C 	C 	0.80880 0.50420 0.07896 0.20000
C 	C 	0.76790 0.46010 0.00111 0.08500
C 	C 	0.92880 0.10710 0.16111 0.32900
C 	C 	0.92690 0.18220 0.20713 -0.06900
C 	C 	0.92630 0.14270 0.25750 -0.02800
C 	C 	0.92760 0.28940 0.19936 -0.01500
C 	C 	0.99580 0.80880 0.07896 0.20200
C 	C 	0.03990 0.76790 0.00111 0.08400
C 	C 	0.57120 0.39290 0.16111 0.32800
C 	C 	0.57310 0.31780 0.20713 -0.06800
C 	C 	0.57370 0.35730 0.25750 -0.02800
C 	C 	0.57240 0.21060 0.19936 -0.01500
C 	C 	0.50420 0.69120 0.07896 0.20000
C 	C 	0.46010 0.73210 0.00111 0.08500
C 	C 	0.89290 0.07120 0.66111 0.32900
C 	C 	0.81780 0.07310 0.70713 -0.06900
C 	C 	0.85730 0.07370 0.75750 -0.02800
C 	C 	0.71060 0.07240 0.69936 -0.01500
C 	C 	0.19120 0.00420 0.57896 0.20100
C 	C 	0.23210 0.96010 0.50111 0.08500
C 	C 	0.60710 0.42880 0.66111 0.32800
C 	C 	0.68220 0.42690 0.70713 -0.06800
C 	C 	0.64270 0.42630 0.75750 -0.02800
C 	C 	0.78940 0.42760 0.69936 -0.01500
C 	C 	0.30880 0.49580 0.57896 0.20000
C 	C 	0.26790 0.53990 0.50111 0.08500
C 	C 	0.42880 0.89290 0.66111 0.32900
C 	C 	0.42690 0.81780 0.70713 -0.06800
C 	C 	0.42630 0.85730 0.75750 -0.02800
C 	C 	0.42760 0.71060 0.69936 -0.01500
C 	C 	0.49580 0.19120 0.57896 0.20000
C 	C 	0.53990 0.23210 0.50111 0.08500
C 	C 	0.07120 0.60710 0.66111 0.32800
C 	C 	0.07310 0.68220 0.70713 -0.06800
C 	C 	0.07370 0.64270 0.75750 -0.02800
C 	C 	0.07240 0.78940 0.69936 -0.01500
C 	C 	0.00420 0.30880 0.57896 0.20100
C 	C 	0.96010 0.26790 0.50111 0.08500
C 	C 	0.60710 0.07120 0.83889 0.32800
C 	C 	0.68220 0.07310 0.79287 -0.06800
C 	C 	0.64270 0.07370 0.74250 -0.02800
C 	C 	0.78940 0.07240 0.80064 -0.01500
C 	C 	0.30880 0.00420 0.92104 0.20200
C 	C 	0.26790 0.96010 0.99889 0.08400
C 	C 	0.89290 0.42880 0.83889 0.32900
C 	C 	0.81780 0.42690 0.79287 -0.06800
C 	C 	0.85730 0.42630 0.74250 -0.02800
C 	C 	0.71060 0.42760 0.80064 -0.01500
C 	C 	0.19120 0.49580 0.92104 0.20000
C 	C 	0.23210 0.53990 0.99889 0.08500
C 	C 	0.07120 0.89290 0.83889 0.32900
C 	C 	0.07310 0.81780 0.79287 -0.06900
C 	C 	0.07370 0.85730 0.74250 -0.02800
C 	C 	0.07240 0.71060 0.80064 -0.01500
C 	C 	0.00420 0.19120 0.92104 0.20200
C 	C 	0.96010 0.23210 0.99889 0.08400
C 	C 	0.42880 0.60710 0.83889 0.32800
C 	C 	0.42690 0.68220 0.79287 -0.06800
C 	C 	0.42630 0.64270 0.74250 -0.02800
C 	C 	0.42760 0.78940 0.80064 -0.01500
C 	C 	0.49580 0.30880 0.92104 0.20000
C 	C 	0.53990 0.26790 0.99889 0.08500
N 	N 	0.72480 0.02250 0.45087 -0.30300
N 	N 	0.86980 0.02700 0.50008 -0.26600
N 	N 	0.89850 0.99750 0.44919 -0.28600
N 	N 	0.80380 0.96920 0.37054 -0.35800
N 	N 	0.77520 0.47750 0.45087 -0.30200
N 	N 	0.63020 0.47300 0.50008 -0.26500
N 	N 	0.60150 0.50250 0.44919 -0.28700
N 	N 	0.69620 0.53080 0.37054 -0.35800
N 	N 	0.47750 0.72480 0.45087 -0.30200
N 	N 	0.47300 0.86980 0.50008 -0.26500
N 	N 	0.50250 0.89850 0.44919 -0.28700
N 	N 	0.53080 0.80380 0.37054 -0.35800
N 	N 	0.02250 0.77520 0.45087 -0.30300
N 	N 	0.02700 0.63020 0.50008 -0.26500
N 	N 	0.99750 0.60150 0.44919 -0.28700
N 	N 	0.96920 0.69620 0.37054 -0.35800
N 	N 	0.77520 0.02250 0.04913 -0.30300
N 	N 	0.63020 0.02700 0.99992 -0.26500
N 	N 	0.60150 0.99750 0.05081 -0.28700
N 	N 	0.69620 0.96920 0.12946 -0.35800
N 	N 	0.72480 0.47750 0.04913 -0.30300
N 	N 	0.86980 0.47300 0.99992 -0.26500
N 	N 	0.89850 0.50250 0.05081 -0.28700
N 	N 	0.80380 0.53080 0.12946 -0.35800
N 	N 	0.02250 0.72480 0.04913 -0.30300
N 	N 	0.02700 0.86980 0.99992 -0.26600
N 	N 	0.99750 0.89850 0.05081 -0.28600
N 	N 	0.96920 0.80380 0.12946 -0.35800
N 	N 	0.47750 0.77520 0.04913 -0.30300
N 	N 	0.47300 0.63020 0.99992 -0.26500
N 	N 	0.50250 0.60150 0.05081 -0.28700
N 	N 	0.53080 0.69620 0.12946 -0.35800
N 	N 	0.27520 0.97750 0.54913 -0.30300
N 	N 	0.13020 0.97300 0.49992 -0.26600
N 	N 	0.10150 0.00250 0.55081 -0.28600
N 	N 	0.19620 0.03080 0.62946 -0.35800
N 	N 	0.22480 0.52250 0.54913 -0.30200
N 	N 	0.36980 0.52700 0.49992 -0.26500
N 	N 	0.39850 0.49750 0.55081 -0.28700
N 	N 	0.30380 0.46920 0.62946 -0.35800
N 	N 	0.52250 0.27520 0.54913 -0.30200
N 	N 	0.52700 0.13020 0.49992 -0.26500
N 	N 	0.49750 0.10150 0.55081 -0.28700
N 	N 	0.46920 0.19620 0.62946 -0.35800
N 	N 	0.97750 0.22480 0.54913 -0.30300
N 	N 	0.97300 0.36980 0.49992 -0.26500
N 	N 	0.00250 0.39850 0.55081 -0.28700
N 	N 	0.03080 0.30380 0.62946 -0.35800
N 	N 	0.22480 0.97750 0.95087 -0.30300
N 	N 	0.36980 0.97300 0.00008 -0.26500
N 	N 	0.39850 0.00250 0.94919 -0.28700
N 	N 	0.30380 0.03080 0.87054 -0.35800
N 	N 	0.27520 0.52250 0.95087 -0.30300
N 	N 	0.13020 0.52700 0.00008 -0.26500
N 	N 	0.10150 0.49750 0.94919 -0.28700
N 	N 	0.19620 0.46920 0.87054 -0.35800
N 	N 	0.97750 0.27520 0.95087 -0.30300
N 	N 	0.97300 0.13020 0.00008 -0.26600
N 	N 	0.00250 0.10150 0.94919 -0.28600
N 	N 	0.03080 0.19620 0.87054 -0.35800
N 	N 	0.52250 0.22480 0.95087 -0.30300
N 	N 	0.52700 0.36980 0.00008 -0.26500
N 	N 	0.49750 0.39850 0.94919 -0.28700
N 	N 	0.46920 0.30380 0.87054 -0.35800
O 	O 	0.14670 0.94800 0.38348 -0.48300
O 	O 	0.01180 0.91170 0.33257 -0.36500
O 	O 	0.35330 0.55200 0.38348 -0.48200
O 	O 	0.48820 0.58830 0.33257 -0.36400
O 	O 	0.55200 0.14670 0.38348 -0.48200
O 	O 	0.58830 0.01180 0.33257 -0.36400
O 	O 	0.94800 0.35330 0.38348 -0.48200
O 	O 	0.91170 0.48820 0.33257 -0.36400
O 	O 	0.35330 0.94800 0.11652 -0.48200
O 	O 	0.48820 0.91170 0.16743 -0.36400
O 	O 	0.14670 0.55200 0.11652 -0.48200
O 	O 	0.01180 0.58830 0.16743 -0.36500
O 	O 	0.94800 0.14670 0.11652 -0.48300
O 	O 	0.91170 0.01180 0.16743 -0.36500
O 	O 	0.55200 0.35330 0.11652 -0.48200
O 	O 	0.58830 0.48820 0.16743 -0.36400
O 	O 	0.85330 0.05200 0.61652 -0.48300
O 	O 	0.98820 0.08830 0.66743 -0.36500
O 	O 	0.64670 0.44800 0.61652 -0.48200
O 	O 	0.51180 0.41170 0.66743 -0.36400
O 	O 	0.44800 0.85330 0.61652 -0.48200
O 	O 	0.41170 0.98820 0.66743 -0.36400
O 	O 	0.05200 0.64670 0.61652 -0.48200
O 	O 	0.08830 0.51180 0.66743 -0.36400
O 	O 	0.64670 0.05200 0.88348 -0.48200
O 	O 	0.51180 0.08830 0.83257 -0.36400
O 	O 	0.85330 0.44800 0.88348 -0.48200
O 	O 	0.98820 0.41170 0.83257 -0.36500
O 	O 	0.05200 0.85330 0.88348 -0.48300
O 	O 	0.08830 0.98820 0.83257 -0.36500
O 	O 	0.44800 0.64670 0.88348 -0.48200
O 	O 	0.41170 0.51180 0.83257 -0.36400
