data_crystal

_cell_length_a 18.20160
_cell_length_b 18.20160
_cell_length_c 18.20160
_cell_angle_alpha 60.00000
_cell_angle_beta  60.00000
_cell_angle_gamma 60.00000

_symmetry_space_group_name_	'P 1'
_symmetry_space_group_name_H-M	'P 1'

loop_
_symmetry_equiv_pos_as_xyz
  x,y,z

loop_
_atom_site_label
_atom_site_type_symbol
_atom_site_fract_x
_atom_site_fract_y
_atom_site_fract_z
_atom_site_charge
Zn	Zn	0.54338 0.36986 0.54338 1.21800
Zn	Zn	0.36986 0.54338 0.54338 1.21800
Zn	Zn	0.54338 0.54338 0.54338 1.21400
Zn	Zn	0.54338 0.54338 0.36986 1.21800
Zn	Zn	0.13029 0.95657 0.95657 1.11600
Zn	Zn	0.95657 0.13029 0.95657 1.11600
Zn	Zn	0.95657 0.95657 0.13029 1.11600
Zn	Zn	0.95657 0.95657 0.95657 1.05600
H 	H 	0.31480 0.09680 0.79420 0.18900
H 	H 	0.09680 0.31480 0.79420 0.18900
H 	H 	0.79420 0.79420 0.31480 0.09900
H 	H 	0.79420 0.79420 0.09680 0.13900
H 	H 	0.31480 0.79420 0.79420 0.09900
H 	H 	0.09680 0.79420 0.79420 0.13900
H 	H 	0.79420 0.31480 0.09680 0.18900
H 	H 	0.79420 0.09680 0.31480 0.18900
H 	H 	0.31480 0.79420 0.09680 0.18900
H 	H 	0.09680 0.79420 0.31480 0.18900
H 	H 	0.79420 0.09680 0.79420 0.13900
H 	H 	0.79420 0.31480 0.79420 0.09900
C 	C 	0.33050 0.21250 0.72850 0.26900
C 	C 	0.28810 0.15890 0.77650 -0.36800
C 	C 	0.21250 0.33050 0.72850 0.26900
C 	C 	0.15890 0.28810 0.77650 -0.36800
C 	C 	0.72850 0.72850 0.33050 0.16800
C 	C 	0.77650 0.77650 0.28810 -0.27300
C 	C 	0.72850 0.72850 0.21250 0.20200
C 	C 	0.77650 0.77650 0.15890 -0.28800
C 	C 	0.33050 0.72850 0.72850 0.16800
C 	C 	0.28810 0.77650 0.77650 -0.27300
C 	C 	0.21250 0.72850 0.72850 0.20200
C 	C 	0.15890 0.77650 0.77650 -0.28800
C 	C 	0.72850 0.33050 0.21250 0.26900
C 	C 	0.77650 0.28810 0.15890 -0.36800
C 	C 	0.72850 0.21250 0.33050 0.26900
C 	C 	0.77650 0.15890 0.28810 -0.36800
C 	C 	0.33050 0.72850 0.21250 0.26900
C 	C 	0.28810 0.77650 0.15890 -0.36800
C 	C 	0.21250 0.72850 0.33050 0.26900
C 	C 	0.15890 0.77650 0.28810 -0.36800
C 	C 	0.72850 0.21250 0.72850 0.20200
C 	C 	0.77650 0.15890 0.77650 -0.28800
C 	C 	0.72850 0.33050 0.72850 0.16800
C 	C 	0.77650 0.28810 0.77650 -0.27300
C 	C 	0.30490 0.30490 0.69510 -0.34500
C 	C 	0.20070 0.20070 0.79930 0.22600
C 	C 	0.13930 0.13930 0.86070 0.23400
C 	C 	0.36170 0.36170 0.63830 0.60700
C 	C 	0.69510 0.69510 0.30490 -0.30400
C 	C 	0.79930 0.79930 0.20070 0.11800
C 	C 	0.86070 0.86070 0.13930 0.25000
C 	C 	0.63830 0.63830 0.36170 0.58000
C 	C 	0.30490 0.69510 0.69510 -0.30400
C 	C 	0.20070 0.79930 0.79930 0.11800
C 	C 	0.13930 0.86070 0.86070 0.25000
C 	C 	0.36170 0.63830 0.63830 0.58000
C 	C 	0.69510 0.30490 0.30490 -0.34500
C 	C 	0.79930 0.20070 0.20070 0.22600
C 	C 	0.86070 0.13930 0.13930 0.23400
C 	C 	0.63830 0.36170 0.36170 0.60700
C 	C 	0.30490 0.69510 0.30490 -0.34500
C 	C 	0.20070 0.79930 0.20070 0.22600
C 	C 	0.13930 0.86070 0.13930 0.23400
C 	C 	0.36170 0.63830 0.36170 0.60700
C 	C 	0.69510 0.30490 0.69510 -0.30400
C 	C 	0.79930 0.20070 0.79930 0.11800
C 	C 	0.86070 0.13930 0.86070 0.25000
C 	C 	0.63830 0.36170 0.63830 0.58000
O 	O 	0.17850 0.05170 0.88490 -0.41100
O 	O 	0.44150 0.32470 0.61690 -0.57600
O 	O 	0.05170 0.17850 0.88490 -0.41100
O 	O 	0.32470 0.44150 0.61690 -0.57600
O 	O 	0.88490 0.88490 0.17850 -0.55200
O 	O 	0.61690 0.61690 0.44150 -0.59000
O 	O 	0.88490 0.88490 0.05170 -0.48200
O 	O 	0.61690 0.61690 0.32470 -0.57700
O 	O 	0.17850 0.88490 0.88490 -0.55200
O 	O 	0.44150 0.61690 0.61690 -0.59000
O 	O 	0.05170 0.88490 0.88490 -0.48200
O 	O 	0.32470 0.61690 0.61690 -0.57700
O 	O 	0.88490 0.17850 0.05170 -0.41100
O 	O 	0.61690 0.44150 0.32470 -0.57600
O 	O 	0.88490 0.05170 0.17850 -0.41100
O 	O 	0.61690 0.32470 0.44150 -0.57600
O 	O 	0.17850 0.88490 0.05170 -0.41100
O 	O 	0.44150 0.61690 0.32470 -0.57600
O 	O 	0.05170 0.88490 0.17850 -0.41100
O 	O 	0.32470 0.61690 0.44150 -0.57600
O 	O 	0.88490 0.05170 0.88490 -0.48200
O 	O 	0.61690 0.32470 0.61690 -0.57700
O 	O 	0.88490 0.17850 0.88490 -0.55200
O 	O 	0.61690 0.44150 0.61690 -0.59000
O 	O 	-0.00000 0.00000 -0.00000 -0.56400
O 	O 	0.50000 0.50000 0.50000 -0.96200
