data_crystal

_cell_length_a 18.14010
_cell_length_b 18.14010
_cell_length_c 18.14010
_cell_angle_alpha 60.00000
_cell_angle_beta  60.00000
_cell_angle_gamma 60.00000

_symmetry_space_group_name_	'P 1'
_symmetry_space_group_name_H-M	'P 1'

loop_
_symmetry_equiv_pos_as_xyz
  x,y,z

loop_
_atom_site_label
_atom_site_type_symbol
_atom_site_fract_x
_atom_site_fract_y
_atom_site_fract_z
_atom_site_charge
Zn	Zn	0.61917 0.79361 0.79361 1.20700
Zn	Zn	0.79361 0.79361 0.79361 1.20700
Zn	Zn	0.79361 0.79361 0.61917 1.20700
Zn	Zn	0.79361 0.61917 0.79361 1.20700
Zn	Zn	0.20639 0.20639 0.20639 1.20700
Zn	Zn	0.38083 0.20639 0.20639 1.20700
Zn	Zn	0.20639 0.20639 0.38083 1.20700
Zn	Zn	0.20639 0.38083 0.20639 1.20700
H 	H 	0.42027 0.95967 0.66039 0.04800
H 	H 	0.95967 0.66039 0.95967 0.04800
H 	H 	0.66039 0.95967 0.42027 0.04800
H 	H 	0.95967 0.42027 0.95967 0.04800
H 	H 	0.42027 0.95967 0.95967 0.04800
H 	H 	0.95967 0.42027 0.66039 0.04800
H 	H 	0.66039 0.95967 0.95967 0.04800
H 	H 	0.95967 0.66039 0.42027 0.04800
H 	H 	0.42027 0.66039 0.95967 0.04800
H 	H 	0.95967 0.95967 0.42027 0.04800
H 	H 	0.66039 0.42027 0.95967 0.04800
H 	H 	0.95967 0.95967 0.66039 0.04800
H 	H 	0.04033 0.04033 0.33961 0.04800
H 	H 	0.57973 0.33961 0.04033 0.04800
H 	H 	0.04033 0.04033 0.57973 0.04800
H 	H 	0.33961 0.57973 0.04033 0.04800
H 	H 	0.33961 0.04033 0.04033 0.04800
H 	H 	0.04033 0.57973 0.33961 0.04800
H 	H 	0.57973 0.04033 0.04033 0.04800
H 	H 	0.04033 0.33961 0.57973 0.04800
H 	H 	0.04033 0.33961 0.04033 0.04800
H 	H 	0.33961 0.04033 0.57973 0.04800
H 	H 	0.04033 0.57973 0.04033 0.04800
H 	H 	0.57973 0.04033 0.33961 0.04800
C 	C 	0.46080 0.97700 0.58520 -0.01500
C 	C 	0.97700 0.58520 0.97700 -0.01500
C 	C 	0.58520 0.97700 0.46080 -0.01500
C 	C 	0.97700 0.46080 0.97700 -0.01500
C 	C 	0.46080 0.97700 0.97700 -0.01500
C 	C 	0.97700 0.46080 0.58520 -0.01500
C 	C 	0.58520 0.97700 0.97700 -0.01500
C 	C 	0.97700 0.58520 0.46080 -0.01500
C 	C 	0.46080 0.58520 0.97700 -0.01500
C 	C 	0.97700 0.97700 0.46080 -0.01500
C 	C 	0.58520 0.46080 0.97700 -0.01500
C 	C 	0.97700 0.97700 0.58520 -0.01500
C 	C 	0.02300 0.02300 0.41480 -0.01500
C 	C 	0.53920 0.41480 0.02300 -0.01500
C 	C 	0.02300 0.02300 0.53920 -0.01500
C 	C 	0.41480 0.53920 0.02300 -0.01500
C 	C 	0.41480 0.02300 0.02300 -0.01500
C 	C 	0.02300 0.53920 0.41480 -0.01500
C 	C 	0.53920 0.02300 0.02300 -0.01500
C 	C 	0.02300 0.41480 0.53920 -0.01500
C 	C 	0.02300 0.41480 0.02300 -0.01500
C 	C 	0.41480 0.02300 0.53920 -0.01500
C 	C 	0.02300 0.53920 0.02300 -0.01500
C 	C 	0.53920 0.02300 0.41480 -0.01500
C 	C 	0.61520 0.88480 0.61520 0.20900
C 	C 	0.55620 0.94380 0.55620 -0.02700
C 	C 	0.88480 0.61520 0.88480 0.20900
C 	C 	0.94380 0.55620 0.94380 -0.02700
C 	C 	0.61520 0.88480 0.88480 0.20900
C 	C 	0.55620 0.94380 0.94380 -0.02700
C 	C 	0.88480 0.61520 0.61520 0.20900
C 	C 	0.94380 0.55620 0.55620 -0.02700
C 	C 	0.61520 0.61520 0.88480 0.20900
C 	C 	0.55620 0.55620 0.94380 -0.02700
C 	C 	0.88480 0.88480 0.61520 0.20900
C 	C 	0.94380 0.94380 0.55620 -0.02700
C 	C 	0.11520 0.11520 0.38480 0.20900
C 	C 	0.05620 0.05620 0.44380 -0.02700
C 	C 	0.38480 0.38480 0.11520 0.20900
C 	C 	0.44380 0.44380 0.05620 -0.02700
C 	C 	0.38480 0.11520 0.11520 0.20900
C 	C 	0.44380 0.05620 0.05620 -0.02700
C 	C 	0.11520 0.38480 0.38480 0.20900
C 	C 	0.05620 0.44380 0.44380 -0.02700
C 	C 	0.11520 0.38480 0.11520 0.20900
C 	C 	0.05620 0.44380 0.05620 -0.02700
C 	C 	0.38480 0.11520 0.38480 0.20900
C 	C 	0.44380 0.05620 0.44380 -0.02700
O 	O 	0.56260 0.86660 0.70420 -0.44400
O 	O 	0.86660 0.70420 0.86660 -0.44400
O 	O 	0.70420 0.86660 0.56260 -0.44400
O 	O 	0.86660 0.56260 0.86660 -0.44400
O 	O 	0.56260 0.86660 0.86660 -0.44400
O 	O 	0.86660 0.56260 0.70420 -0.44400
O 	O 	0.70420 0.86660 0.86660 -0.44400
O 	O 	0.86660 0.70420 0.56260 -0.44400
O 	O 	0.56260 0.70420 0.86660 -0.44400
O 	O 	0.86660 0.86660 0.56260 -0.44400
O 	O 	0.70420 0.56260 0.86660 -0.44400
O 	O 	0.86660 0.86660 0.70420 -0.44400
O 	O 	0.13340 0.13340 0.29580 -0.44400
O 	O 	0.43740 0.29580 0.13340 -0.44400
O 	O 	0.13340 0.13340 0.43740 -0.44400
O 	O 	0.29580 0.43740 0.13340 -0.44400
O 	O 	0.29580 0.13340 0.13340 -0.44400
O 	O 	0.13340 0.43740 0.29580 -0.44400
O 	O 	0.43740 0.13340 0.13340 -0.44400
O 	O 	0.13340 0.29580 0.43740 -0.44400
O 	O 	0.13340 0.29580 0.13340 -0.44400
O 	O 	0.29580 0.13340 0.43740 -0.44400
O 	O 	0.13340 0.43740 0.13340 -0.44400
O 	O 	0.43740 0.13340 0.29580 -0.44400
O 	O 	0.75000 0.75000 0.75000 -0.98800
O 	O 	0.25000 0.25000 0.25000 -0.98800
