data_crystal

_cell_length_a 14.72010
_cell_length_b 14.72010
_cell_length_c 16.80000
_cell_angle_alpha 102.40900
_cell_angle_beta  102.40900
_cell_angle_gamma 115.86200

_symmetry_space_group_name_	'P 1'
_symmetry_space_group_name_H-M	'P 1'

loop_
_symmetry_equiv_pos_as_xyz
  x,y,z

loop_
_atom_site_label
_atom_site_type_symbol
_atom_site_fract_x
_atom_site_fract_y
_atom_site_fract_z
_atom_site_charge
Zn	Zn	0.52586 0.92474 0.91827 1.23300
Zn	Zn	0.07526 0.47414 0.58173 1.23400
Zn	Zn	0.47414 0.07526 0.08173 1.23300
Zn	Zn	0.92474 0.52586 0.41827 1.23400
Zn	Zn	0.32863 0.67137 0.75000 1.23400
Zn	Zn	0.67137 0.32863 0.25000 1.23400
H 	H 	0.49120 0.54780 0.83700 -0.00900
H 	H 	0.58590 0.45850 0.84710 0.12100
H 	H 	0.86190 0.73670 0.92590 0.12000
H 	H 	0.76560 0.82540 0.91280 -0.00500
H 	H 	0.12400 0.60600 0.91220 0.00200
H 	H 	0.98690 0.57430 0.96860 0.11500
H 	H 	0.80170 0.55790 0.74850 0.11600
H 	H 	0.93760 0.58700 0.69180 -0.00700
H 	H 	0.61330 0.33110 0.03070 -0.00800
H 	H 	0.69610 0.49050 0.00640 0.11800
H 	H 	0.79700 0.35660 0.83850 0.11800
H 	H 	0.72360 0.20140 0.87130 -0.00800
H 	H 	0.45220 0.50880 0.66300 -0.01000
H 	H 	0.54150 0.41410 0.65290 0.12000
H 	H 	0.26330 0.13810 0.57410 0.12000
H 	H 	0.17460 0.23440 0.58720 -0.00500
H 	H 	0.39400 0.87600 0.58780 0.00200
H 	H 	0.42570 0.01310 0.53140 0.11500
H 	H 	0.44210 0.19830 0.75150 0.11700
H 	H 	0.41300 0.06240 0.80820 -0.00700
H 	H 	0.66890 0.38670 0.46930 -0.00500
H 	H 	0.50950 0.30390 0.49360 0.11900
H 	H 	0.64340 0.20300 0.66150 0.11800
H 	H 	0.79860 0.27640 0.62870 -0.00800
H 	H 	0.50880 0.45220 0.16300 -0.01000
H 	H 	0.41410 0.54150 0.15290 0.12000
H 	H 	0.13810 0.26330 0.07410 0.12000
H 	H 	0.23440 0.17460 0.08720 -0.00500
H 	H 	0.87600 0.39400 0.08780 0.00200
H 	H 	0.01310 0.42570 0.03140 0.11500
H 	H 	0.19830 0.44210 0.25150 0.11600
H 	H 	0.06240 0.41300 0.30820 -0.00700
H 	H 	0.38670 0.66890 0.96930 -0.00800
H 	H 	0.30390 0.50950 0.99360 0.11800
H 	H 	0.20300 0.64340 0.16150 0.11800
H 	H 	0.27640 0.79860 0.12870 -0.00800
H 	H 	0.54780 0.49120 0.33700 -0.01000
H 	H 	0.45850 0.58590 0.34710 0.12000
H 	H 	0.73670 0.86190 0.42590 0.12000
H 	H 	0.82540 0.76560 0.41280 -0.00500
H 	H 	0.60600 0.12400 0.41220 0.00200
H 	H 	0.57430 0.98690 0.46860 0.11500
H 	H 	0.55790 0.80170 0.24850 0.11700
H 	H 	0.58700 0.93760 0.19180 -0.00700
H 	H 	0.33110 0.61330 0.53070 -0.00500
H 	H 	0.49050 0.69610 0.50640 0.11900
H 	H 	0.35660 0.79700 0.33850 0.11800
H 	H 	0.20140 0.72360 0.37130 -0.00800
C 	C 	0.55522 0.75098 0.86670 0.42900
C 	C 	0.61887 0.69593 0.87470 -0.21300
C 	C 	0.56604 0.58636 0.85480 0.15200
C 	C 	0.62300 0.53280 0.86100 -0.24800
C 	C 	0.73337 0.58763 0.88740 0.20400
C 	C 	0.78705 0.69795 0.90750 -0.23800
C 	C 	0.72910 0.75130 0.90020 0.14700
C 	C 	0.13038 0.61362 0.75690 0.41400
C 	C 	0.04427 0.59853 0.79570 -0.20400
C 	C 	0.05871 0.59529 0.87860 0.13300
C 	C 	0.97632 0.57608 0.91250 -0.23000
C 	C 	0.88004 0.55996 0.86310 0.19700
C 	C 	0.86616 0.56604 0.78140 -0.23200
C 	C 	0.94810 0.58430 0.74770 0.13800
C 	C 	0.60134 0.14406 0.96600 0.45800
C 	C 	0.65798 0.24902 0.95220 -0.21400
C 	C 	0.65088 0.33612 0.99240 0.15600
C 	C 	0.69886 0.43114 0.97670 -0.23800
C 	C 	0.75142 0.43878 0.91660 0.20000
C 	C 	0.76050 0.35230 0.87760 -0.24100
C 	C 	0.71520 0.25860 0.89660 0.14900
C 	C 	0.24902 0.44478 0.63330 0.42900
C 	C 	0.30407 0.38113 0.62530 -0.21300
C 	C 	0.41364 0.43396 0.64520 0.15100
C 	C 	0.46720 0.37700 0.63900 -0.24800
C 	C 	0.41237 0.26663 0.61260 0.20400
C 	C 	0.30205 0.21295 0.59250 -0.23800
C 	C 	0.24870 0.27090 0.59980 0.14700
C 	C 	0.38638 0.86962 0.74310 0.41500
C 	C 	0.40147 0.95573 0.70430 -0.20700
C 	C 	0.40471 0.94129 0.62140 0.13600
C 	C 	0.42392 0.02368 0.58750 -0.23200
C 	C 	0.44004 0.11996 0.63690 0.19800
C 	C 	0.43396 0.13384 0.71860 -0.23400
C 	C 	0.41570 0.05190 0.75230 0.14200
C 	C 	0.85594 0.39866 0.53400 0.45700
C 	C 	0.75098 0.34202 0.54780 -0.21300
C 	C 	0.66388 0.34912 0.50760 0.15100
C 	C 	0.56886 0.30114 0.52330 -0.23700
C 	C 	0.56122 0.24858 0.58340 0.19900
C 	C 	0.64770 0.23950 0.62240 -0.24100
C 	C 	0.74140 0.28480 0.60340 0.14700
C 	C 	0.44478 0.24902 0.13330 0.42900
C 	C 	0.38113 0.30407 0.12530 -0.21300
C 	C 	0.43396 0.41364 0.14520 0.15200
C 	C 	0.37700 0.46720 0.13900 -0.24800
C 	C 	0.26663 0.41237 0.11260 0.20400
C 	C 	0.21295 0.30205 0.09250 -0.23800
C 	C 	0.27090 0.24870 0.09980 0.14700
C 	C 	0.86962 0.38638 0.24310 0.41400
C 	C 	0.95573 0.40147 0.20430 -0.20400
C 	C 	0.94129 0.40471 0.12140 0.13300
C 	C 	0.02368 0.42392 0.08750 -0.23000
C 	C 	0.11996 0.44004 0.13690 0.19700
C 	C 	0.13384 0.43396 0.21860 -0.23200
C 	C 	0.05190 0.41570 0.25230 0.13800
C 	C 	0.39866 0.85594 0.03400 0.45800
C 	C 	0.34202 0.75098 0.04780 -0.21400
C 	C 	0.34912 0.66388 0.00760 0.15600
C 	C 	0.30114 0.56886 0.02330 -0.23800
C 	C 	0.24858 0.56122 0.08340 0.20000
C 	C 	0.23950 0.64770 0.12240 -0.24100
C 	C 	0.28480 0.74140 0.10340 0.14900
C 	C 	0.75098 0.55522 0.36670 0.42900
C 	C 	0.69593 0.61887 0.37470 -0.21300
C 	C 	0.58636 0.56604 0.35480 0.15100
C 	C 	0.53280 0.62300 0.36100 -0.24800
C 	C 	0.58763 0.73337 0.38740 0.20400
C 	C 	0.69795 0.78705 0.40750 -0.23800
C 	C 	0.75130 0.72910 0.40020 0.14700
C 	C 	0.61362 0.13038 0.25690 0.41500
C 	C 	0.59853 0.04427 0.29570 -0.20700
C 	C 	0.59529 0.05871 0.37860 0.13600
C 	C 	0.57608 0.97632 0.41250 -0.23200
C 	C 	0.55996 0.88004 0.36310 0.19800
C 	C 	0.56604 0.86616 0.28140 -0.23400
C 	C 	0.58430 0.94810 0.24770 0.14200
C 	C 	0.14406 0.60134 0.46600 0.45700
C 	C 	0.24902 0.65798 0.45220 -0.21300
C 	C 	0.33612 0.65088 0.49240 0.15100
C 	C 	0.43114 0.69886 0.47670 -0.23700
C 	C 	0.43878 0.75142 0.41660 0.19900
C 	C 	0.35230 0.76050 0.37760 -0.24100
C 	C 	0.25860 0.71520 0.39660 0.14700
N 	N 	0.79327 0.53409 0.89606 -0.20500
N 	N 	0.46591 0.20673 0.60394 -0.20500
N 	N 	0.20673 0.46591 0.10394 -0.20500
N 	N 	0.53409 0.79327 0.39606 -0.20500
O 	O 	0.45388 0.69206 0.83670 -0.50700
O 	O 	0.60475 0.85237 0.89133 -0.48400
O 	O 	0.22193 0.64217 0.80795 -0.48000
O 	O 	0.10885 0.59819 0.67743 -0.53400
O 	O 	0.52857 0.13135 0.99811 -0.52700
O 	O 	0.62577 0.07519 0.94278 -0.50200
O 	O 	0.30794 0.54612 0.66330 -0.50600
O 	O 	0.14763 0.39525 0.60867 -0.48200
O 	O 	0.35783 0.77807 0.69205 -0.48000
O 	O 	0.40181 0.89115 0.82257 -0.53600
O 	O 	0.86865 0.47143 0.50189 -0.52900
O 	O 	0.92481 0.37423 0.55722 -0.50400
O 	O 	0.54612 0.30794 0.16330 -0.50700
O 	O 	0.39525 0.14763 0.10867 -0.48400
O 	O 	0.77807 0.35783 0.19205 -0.48000
O 	O 	0.89115 0.40181 0.32257 -0.53400
O 	O 	0.47143 0.86865 0.00189 -0.52700
O 	O 	0.37423 0.92481 0.05722 -0.50200
O 	O 	0.69206 0.45388 0.33670 -0.50600
O 	O 	0.85237 0.60475 0.39133 -0.48200
O 	O 	0.64217 0.22193 0.30795 -0.48000
O 	O 	0.59819 0.10885 0.17743 -0.53600
O 	O 	0.13135 0.52857 0.49811 -0.52900
O 	O 	0.07519 0.62577 0.44278 -0.50400
