data_crystal

_cell_length_a 7.65130
_cell_length_b 13.95190
_cell_length_c 14.29910
_cell_angle_alpha 99.35900
_cell_angle_beta  90.00000
_cell_angle_gamma 90.00000

_symmetry_space_group_name_	'P 1'
_symmetry_space_group_name_H-M	'P 1'

loop_
_symmetry_equiv_pos_as_xyz
  x,y,z

loop_
_atom_site_label
_atom_site_type_symbol
_atom_site_fract_x
_atom_site_fract_y
_atom_site_fract_z
_atom_site_charge
Zn	Zn	0.40056 0.25000 0.25000 1.21400
Zn	Zn	0.59944 0.75000 0.75000 1.21400
H 	H 	0.52560 0.24920 0.45380 -0.01800
H 	H 	0.77120 0.20590 0.52690 0.09800
H 	H 	0.94520 0.06940 0.27630 0.10100
H 	H 	0.69150 0.11280 0.21090 -0.01400
H 	H 	0.05680 0.12770 0.52230 0.07800
H 	H 	0.18240 0.04700 0.34980 0.03400
H 	H 	0.29970 0.09270 0.59690 0.05000
H 	H 	0.45240 0.96160 0.34010 0.05300
H 	H 	0.27090 0.93180 0.00020 0.05400
H 	H 	0.94860 0.14740 0.09410 0.05200
H 	H 	0.52560 0.25080 0.04620 -0.01700
H 	H 	0.77120 0.29410 0.97310 0.09800
H 	H 	0.94520 0.43060 0.22370 0.10100
H 	H 	0.69150 0.38720 0.28910 -0.01400
H 	H 	0.05680 0.37230 0.97770 0.07600
H 	H 	0.18240 0.45300 0.15020 0.03400
H 	H 	0.29970 0.40730 0.90310 0.05000
H 	H 	0.45240 0.53840 0.15990 0.05300
H 	H 	0.27090 0.56820 0.49980 0.05300
H 	H 	0.94860 0.35260 0.40590 0.05200
H 	H 	0.47440 0.75080 0.54620 -0.01700
H 	H 	0.22880 0.79410 0.47310 0.09900
H 	H 	0.05480 0.93060 0.72370 0.10100
H 	H 	0.30850 0.88720 0.78910 -0.01400
H 	H 	0.94320 0.87230 0.47770 0.07800
H 	H 	0.81760 0.95300 0.65020 0.03400
H 	H 	0.70030 0.90730 0.40310 0.05000
H 	H 	0.54760 0.03840 0.65990 0.05300
H 	H 	0.72910 0.06820 0.99980 0.05400
H 	H 	0.05140 0.85260 0.90590 0.05200
H 	H 	0.47440 0.74920 0.95380 -0.01700
H 	H 	0.22880 0.70590 0.02690 0.09800
H 	H 	0.05480 0.56940 0.77630 0.10100
H 	H 	0.30850 0.61280 0.71090 -0.01400
H 	H 	0.94320 0.62770 0.02230 0.07600
H 	H 	0.81760 0.54700 0.84980 0.03400
H 	H 	0.70030 0.59270 0.09690 0.05000
H 	H 	0.54760 0.46160 0.84010 0.05300
H 	H 	0.72910 0.43180 0.50020 0.05300
H 	H 	0.05140 0.64740 0.59410 0.05200
C 	C 	0.61050 0.21260 0.41760 0.11000
C 	C 	0.75890 0.18720 0.46180 -0.19400
C 	C 	0.89120 0.13370 0.41050 0.14900
C 	C 	0.86230 0.10590 0.31410 -0.19100
C 	C 	0.70910 0.13300 0.27540 0.10700
C 	C 	0.05070 0.10880 0.45690 -0.13300
C 	C 	0.18730 0.06220 0.41560 -0.02900
C 	C 	0.34670 0.03100 0.46030 0.02400
C 	C 	0.37940 0.05510 0.55770 -0.05200
C 	C 	0.47110 0.97690 0.40510 -0.06100
C 	C 	0.27040 0.09630 0.12210 0.40900
C 	C 	0.13120 0.04590 0.05850 -0.09000
C 	C 	0.16060 0.95990 0.00110 -0.01500
C 	C 	0.97080 0.08750 0.05680 -0.01600
C 	C 	0.61050 0.28740 0.08240 0.11000
C 	C 	0.75890 0.31280 0.03820 -0.19200
C 	C 	0.89120 0.36630 0.08950 0.14700
C 	C 	0.86230 0.39410 0.18590 -0.19000
C 	C 	0.70910 0.36700 0.22460 0.10600
C 	C 	0.05070 0.39120 0.04310 -0.12900
C 	C 	0.18730 0.43780 0.08440 -0.03200
C 	C 	0.34670 0.46900 0.03970 0.02500
C 	C 	0.37940 0.44490 0.94230 -0.05300
C 	C 	0.47110 0.52310 0.09490 -0.06000
C 	C 	0.27040 0.40370 0.37790 0.41100
C 	C 	0.13120 0.45410 0.44150 -0.09400
C 	C 	0.16060 0.54010 0.49890 -0.01100
C 	C 	0.97080 0.41250 0.44320 -0.01500
C 	C 	0.38950 0.78740 0.58240 0.11000
C 	C 	0.24110 0.81280 0.53820 -0.19400
C 	C 	0.10880 0.86630 0.58950 0.14900
C 	C 	0.13770 0.89410 0.68590 -0.19100
C 	C 	0.29090 0.86700 0.72460 0.10700
C 	C 	0.94930 0.89120 0.54310 -0.13300
C 	C 	0.81270 0.93780 0.58440 -0.02900
C 	C 	0.65330 0.96900 0.53970 0.02400
C 	C 	0.62060 0.94490 0.44230 -0.05200
C 	C 	0.52890 0.02310 0.59490 -0.06100
C 	C 	0.72960 0.90370 0.87790 0.40900
C 	C 	0.86880 0.95410 0.94150 -0.09000
C 	C 	0.83940 0.04010 0.99890 -0.01500
C 	C 	0.02920 0.91250 0.94320 -0.01600
C 	C 	0.38950 0.71260 0.91760 0.11000
C 	C 	0.24110 0.68720 0.96180 -0.19200
C 	C 	0.10880 0.63370 0.91050 0.14700
C 	C 	0.13770 0.60590 0.81410 -0.19000
C 	C 	0.29090 0.63300 0.77540 0.10600
C 	C 	0.94930 0.60880 0.95690 -0.12900
C 	C 	0.81270 0.56220 0.91560 -0.03200
C 	C 	0.65330 0.53100 0.96030 0.02500
C 	C 	0.62060 0.55510 0.05770 -0.05300
C 	C 	0.52890 0.47690 0.90510 -0.06000
C 	C 	0.72960 0.59630 0.62210 0.41100
C 	C 	0.86880 0.54590 0.55850 -0.09400
C 	C 	0.83940 0.45990 0.50110 -0.01100
C 	C 	0.02920 0.58750 0.55680 -0.01500
N 	N 	0.58370 0.18640 0.32400 -0.27700
N 	N 	0.58370 0.31360 0.17600 -0.27700
N 	N 	0.41630 0.81360 0.67600 -0.27700
N 	N 	0.41630 0.68640 0.82400 -0.27700
O 	O 	0.23790 0.17670 0.16460 -0.49800
O 	O 	0.41060 0.06000 0.12560 -0.34000
O 	O 	0.23790 0.32330 0.33540 -0.49800
O 	O 	0.41060 0.44000 0.37440 -0.34000
O 	O 	0.76210 0.82330 0.83540 -0.49800
O 	O 	0.58940 0.94000 0.87440 -0.34000
O 	O 	0.76210 0.67670 0.66460 -0.49800
O 	O 	0.58940 0.56000 0.62560 -0.34000
