data_crystal

_cell_length_a 7.62290
_cell_length_b 13.91590
_cell_length_c 14.28270
_cell_angle_alpha 99.27100
_cell_angle_beta  90.00000
_cell_angle_gamma 90.00000

_symmetry_space_group_name_	'P 1'
_symmetry_space_group_name_H-M	'P 1'

loop_
_symmetry_equiv_pos_as_xyz
  x,y,z

loop_
_atom_site_label
_atom_site_type_symbol
_atom_site_fract_x
_atom_site_fract_y
_atom_site_fract_z
_atom_site_charge
Zn	Zn	0.40020 0.25000 0.25000 1.21600
Zn	Zn	0.59980 0.75000 0.75000 1.21600
H 	H 	0.52320 0.25030 0.45520 -0.01100
H 	H 	0.77040 0.20800 0.52910 0.08800
H 	H 	0.94650 0.06970 0.27650 0.09100
H 	H 	0.69130 0.11120 0.20940 -0.00900
H 	H 	0.05830 0.12900 0.52360 0.07100
H 	H 	0.18140 0.04380 0.34810 0.03600
H 	H 	0.29760 0.09170 0.59820 0.04800
H 	H 	0.44840 0.95800 0.33880 0.05100
H 	H 	0.27540 0.93000 0.99850 0.05200
H 	H 	0.94660 0.14870 0.09470 0.05100
H 	H 	0.52320 0.24970 0.04480 -0.01000
H 	H 	0.77040 0.29200 0.97090 0.08700
H 	H 	0.94650 0.43030 0.22350 0.09100
H 	H 	0.69130 0.38880 0.29060 -0.00800
H 	H 	0.05830 0.37100 0.97640 0.06700
H 	H 	0.18140 0.45620 0.15190 0.03700
H 	H 	0.29760 0.40830 0.90180 0.04900
H 	H 	0.44840 0.54200 0.16120 0.05200
H 	H 	0.27540 0.57000 0.50150 0.05300
H 	H 	0.94660 0.35130 0.40530 0.05100
H 	H 	0.47680 0.74970 0.54480 -0.01100
H 	H 	0.22960 0.79200 0.47090 0.08800
H 	H 	0.05350 0.93030 0.72350 0.09100
H 	H 	0.30870 0.88880 0.79060 -0.00900
H 	H 	0.94170 0.87100 0.47640 0.07000
H 	H 	0.81860 0.95620 0.65190 0.03600
H 	H 	0.70240 0.90830 0.40180 0.04800
H 	H 	0.55160 0.04200 0.66120 0.05100
H 	H 	0.72460 0.07000 0.00150 0.05300
H 	H 	0.05340 0.85130 0.90530 0.05200
H 	H 	0.47680 0.75030 0.95520 -0.01200
H 	H 	0.22960 0.70800 0.02910 0.09000
H 	H 	0.05350 0.56970 0.77650 0.09100
H 	H 	0.30870 0.61120 0.70940 -0.00900
H 	H 	0.94170 0.62900 0.02360 0.07000
H 	H 	0.81860 0.54380 0.84810 0.03500
H 	H 	0.70240 0.59170 0.09820 0.04700
H 	H 	0.55160 0.45800 0.83880 0.05000
H 	H 	0.72460 0.43000 0.49850 0.05300
H 	H 	0.05340 0.64870 0.59470 0.05100
C 	C 	0.61080 0.21290 0.41850 0.09500
C 	C 	0.75770 0.18810 0.46260 -0.17100
C 	C 	0.89090 0.13350 0.41150 0.13200
C 	C 	0.86080 0.10650 0.31510 -0.17100
C 	C 	0.70910 0.13250 0.27530 0.09700
C 	C 	0.05050 0.10880 0.45690 -0.11700
C 	C 	0.18700 0.06070 0.41510 -0.03600
C 	C 	0.34490 0.03080 0.46040 0.02500
C 	C 	0.38020 0.05440 0.55780 -0.04900
C 	C 	0.46920 0.97560 0.40490 -0.05800
C 	C 	0.27090 0.09570 0.12290 0.39400
C 	C 	0.13110 0.04510 0.05900 -0.08700
C 	C 	0.16200 0.95860 -0.00000 -0.01200
C 	C 	0.96880 0.08730 0.05670 -0.01700
C 	C 	0.61080 0.28710 0.08150 0.09400
C 	C 	0.75770 0.31190 0.03740 -0.16800
C 	C 	0.89090 0.36650 0.08850 0.12800
C 	C 	0.86080 0.39350 0.18490 -0.16900
C 	C 	0.70910 0.36750 0.22470 0.09500
C 	C 	0.05050 0.39120 0.04310 -0.11000
C 	C 	0.18700 0.43930 0.08490 -0.04100
C 	C 	0.34490 0.46920 0.03960 0.03000
C 	C 	0.38020 0.44560 0.94220 -0.05400
C 	C 	0.46920 0.52440 0.09510 -0.06100
C 	C 	0.27090 0.40430 0.37710 0.39500
C 	C 	0.13110 0.45490 0.44100 -0.08900
C 	C 	0.16200 0.54140 0.50000 -0.01200
C 	C 	0.96880 0.41270 0.44330 -0.01500
C 	C 	0.38920 0.78710 0.58150 0.09500
C 	C 	0.24230 0.81190 0.53740 -0.17100
C 	C 	0.10910 0.86650 0.58850 0.13100
C 	C 	0.13920 0.89350 0.68490 -0.17100
C 	C 	0.29090 0.86750 0.72470 0.09700
C 	C 	0.94950 0.89120 0.54310 -0.11700
C 	C 	0.81300 0.93930 0.58490 -0.03600
C 	C 	0.65510 0.96920 0.53960 0.02500
C 	C 	0.61980 0.94560 0.44220 -0.05000
C 	C 	0.53080 0.02440 0.59510 -0.05800
C 	C 	0.72910 0.90430 0.87710 0.39400
C 	C 	0.86890 0.95490 0.94100 -0.08600
C 	C 	0.83800 0.04140 -0.00000 -0.01400
C 	C 	0.03120 0.91270 0.94330 -0.01900
C 	C 	0.38920 0.71290 0.91850 0.09600
C 	C 	0.24230 0.68810 0.96260 -0.17300
C 	C 	0.10910 0.63350 0.91150 0.13200
C 	C 	0.13920 0.60650 0.81510 -0.17100
C 	C 	0.29090 0.63250 0.77530 0.09700
C 	C 	0.94950 0.60880 0.95690 -0.11700
C 	C 	0.81300 0.56070 0.91510 -0.03500
C 	C 	0.65510 0.53080 0.96040 0.02200
C 	C 	0.61980 0.55440 0.05780 -0.04700
C 	C 	0.53080 0.47560 0.90490 -0.05500
C 	C 	0.72910 0.59570 0.62290 0.39500
C 	C 	0.86890 0.54510 0.55900 -0.08900
C 	C 	0.83800 0.45860 0.50000 -0.01300
C 	C 	0.03120 0.58730 0.55670 -0.01600
N 	N 	0.58450 0.18620 0.32390 -0.27200
N 	N 	0.58450 0.31380 0.17610 -0.27200
N 	N 	0.41550 0.81380 0.67610 -0.27200
N 	N 	0.41550 0.68620 0.82390 -0.27200
O 	O 	0.23740 0.17690 0.16570 -0.49300
O 	O 	0.41290 0.05940 0.12670 -0.33400
O 	O 	0.23740 0.32310 0.33430 -0.49400
O 	O 	0.41290 0.44060 0.37330 -0.33400
O 	O 	0.76260 0.82310 0.83430 -0.49300
O 	O 	0.58710 0.94060 0.87330 -0.33400
O 	O 	0.76260 0.67690 0.66570 -0.49400
O 	O 	0.58710 0.55940 0.62670 -0.33400
