data_crystal

_cell_length_a 6.83510
_cell_length_b 15.03620
_cell_length_c 19.31970
_cell_angle_alpha 90.00000
_cell_angle_beta  96.30500
_cell_angle_gamma 90.00000

_symmetry_space_group_name_	'P 1'
_symmetry_space_group_name_H-M	'P 1'

loop_
_symmetry_equiv_pos_as_xyz
  x,y,z

loop_
_atom_site_label
_atom_site_type_symbol
_atom_site_fract_x
_atom_site_fract_y
_atom_site_fract_z
_atom_site_charge
Fe	Fe	0.52510 0.74420 0.50560 1.26100
Fe	Fe	0.97490 0.24420 0.49440 1.28100
Fe	Fe	0.47490 0.25580 0.49440 1.26000
Fe	Fe	0.02510 0.75580 0.50560 1.24000
Fe	Fe	0.50000 0.00000 -0.00000 1.09500
Fe	Fe	-0.00000 0.50000 -0.00000 1.12600
Fe	Fe	0.50000 0.50000 -0.00000 1.15500
Fe	Fe	-0.00000 0.00000 -0.00000 1.07500
H 	H 	0.48390 0.63090 0.17200 0.03000
H 	H 	0.45830 0.66510 0.28940 0.05300
H 	H 	0.03810 0.60560 0.33780 0.02000
H 	H 	0.06370 0.57140 0.22050 -0.00200
H 	H 	0.47380 0.61490 0.66960 0.05000
H 	H 	0.44260 0.58880 0.78780 0.05400
H 	H 	0.02650 0.63970 0.83610 0.02500
H 	H 	0.05770 0.66580 0.71790 0.00500
H 	H 	0.01610 0.13090 0.82800 0.02700
H 	H 	0.04170 0.16510 0.71060 0.00600
H 	H 	0.46190 0.10560 0.66220 0.04000
H 	H 	0.43630 0.07140 0.77950 0.03700
H 	H 	0.02620 0.11490 0.33040 0.00000
H 	H 	0.05740 0.08880 0.21220 -0.01300
H 	H 	0.47350 0.13970 0.16390 0.04400
H 	H 	0.44230 0.16580 0.28210 0.04200
H 	H 	0.51610 0.36910 0.82800 0.08200
H 	H 	0.54170 0.33490 0.71060 0.05600
H 	H 	0.96190 0.39440 0.66220 0.10000
H 	H 	0.93630 0.42860 0.77950 0.10200
H 	H 	0.52620 0.38510 0.33040 0.05900
H 	H 	0.55740 0.41120 0.21220 0.05600
H 	H 	0.97350 0.36030 0.16390 0.10400
H 	H 	0.94230 0.33420 0.28210 0.09300
H 	H 	0.98390 0.86910 0.17200 0.09100
H 	H 	0.95830 0.83490 0.28940 0.10300
H 	H 	0.53810 0.89440 0.33780 0.08000
H 	H 	0.56370 0.92860 0.22050 0.06900
H 	H 	0.97380 0.88510 0.66960 0.10700
H 	H 	0.94260 0.91120 0.78780 0.11800
H 	H 	0.52650 0.86030 0.83610 0.08200
H 	H 	0.55770 0.83420 0.71790 0.05400
C 	C 	0.77590 0.59830 0.18650 -0.11700
C 	C 	0.59940 0.62560 0.20660 0.01200
C 	C 	0.58450 0.64560 0.27500 -0.02700
C 	C 	0.74610 0.63820 0.32340 -0.06800
C 	C 	0.92260 0.61090 0.30330 0.02000
C 	C 	0.93750 0.59090 0.23490 0.06200
C 	C 	0.79240 0.57620 0.11100 0.39000
C 	C 	0.72960 0.66020 0.39890 0.34900
C 	C 	0.76840 0.64260 0.68390 -0.10200
C 	C 	0.58910 0.62010 0.70430 0.00300
C 	C 	0.57090 0.60480 0.77320 -0.01800
C 	C 	0.73200 0.61200 0.82180 -0.06900
C 	C 	0.91130 0.63450 0.80140 0.02600
C 	C 	0.92950 0.64980 0.73250 0.05400
C 	C 	0.78800 0.65900 0.60950 0.36600
C 	C 	0.21230 0.90440 0.89620 0.32600
C 	C 	0.72410 0.09830 0.81350 -0.07800
C 	C 	0.90060 0.12560 0.79340 0.02000
C 	C 	0.91550 0.14560 0.72500 0.04000
C 	C 	0.75390 0.13820 0.67660 -0.09500
C 	C 	0.57740 0.11090 0.69670 -0.01300
C 	C 	0.56250 0.09090 0.76510 -0.02400
C 	C 	0.70760 0.07620 0.88900 0.33700
C 	C 	0.77040 0.16020 0.60110 0.34900
C 	C 	0.73160 0.14260 0.31610 -0.10700
C 	C 	0.91090 0.12010 0.29570 0.03000
C 	C 	0.92910 0.10480 0.22680 0.03700
C 	C 	0.76800 0.11200 0.17820 -0.11000
C 	C 	0.58870 0.13450 0.19860 -0.01700
C 	C 	0.57050 0.14980 0.26750 -0.01400
C 	C 	0.71200 0.15900 0.39050 0.36000
C 	C 	0.28770 0.40440 0.10380 0.33400
C 	C 	0.22410 0.40170 0.81350 -0.03500
C 	C 	0.40060 0.37440 0.79340 -0.03000
C 	C 	0.41550 0.35440 0.72500 -0.00500
C 	C 	0.25390 0.36180 0.67660 -0.06100
C 	C 	0.07740 0.38910 0.69670 -0.05600
C 	C 	0.06250 0.40910 0.76510 -0.07300
C 	C 	0.20760 0.42380 0.88900 0.33300
C 	C 	0.27040 0.33980 0.60110 0.34000
C 	C 	0.23160 0.35740 0.31610 -0.07200
C 	C 	0.41090 0.37990 0.29570 -0.01200
C 	C 	0.42910 0.39520 0.22680 -0.01800
C 	C 	0.26800 0.38800 0.17820 -0.06200
C 	C 	0.08870 0.36550 0.19860 -0.07200
C 	C 	0.07050 0.35020 0.26750 -0.05700
C 	C 	0.21200 0.34100 0.39050 0.35100
C 	C 	0.78770 0.09560 0.10380 0.34100
C 	C 	0.27590 0.90170 0.18650 -0.06400
C 	C 	0.09940 0.87440 0.20660 -0.04700
C 	C 	0.08450 0.85440 0.27500 -0.06800
C 	C 	0.24610 0.86180 0.32340 -0.03700
C 	C 	0.42260 0.88910 0.30330 -0.01900
C 	C 	0.43750 0.90910 0.23490 0.00400
C 	C 	0.29240 0.92380 0.11100 0.37300
C 	C 	0.22960 0.83980 0.39890 0.34100
C 	C 	0.26840 0.85740 0.68390 -0.06900
C 	C 	0.08910 0.87990 0.70430 -0.03800
C 	C 	0.07090 0.89520 0.77320 -0.06900
C 	C 	0.23200 0.88800 0.82180 -0.02100
C 	C 	0.41130 0.86550 0.80140 -0.02600
C 	C 	0.42950 0.85020 0.73250 0.01100
C 	C 	0.28800 0.84100 0.60950 0.35700
C 	C 	0.71230 0.59560 0.89620 0.33900
O 	O 	0.27860 0.68840 0.50540 -0.44300
O 	O 	0.74440 0.93340 0.99960 -0.19400
O 	O 	0.64000 0.57740 0.06700 -0.48500
O 	O 	0.95850 0.55660 0.09150 -0.41100
O 	O 	0.56780 0.68830 0.41710 -0.40300
O 	O 	0.37770 0.84940 0.44410 -0.34200
O 	O 	0.63950 0.65070 0.56430 -0.40800
O 	O 	0.45340 0.81850 0.59080 -0.37300
O 	O 	0.04490 0.92230 0.91540 -0.29000
O 	O 	0.36290 0.90070 0.94090 -0.26100
O 	O 	0.22140 0.18840 0.49460 -0.46300
O 	O 	0.75560 0.43340 0.00040 -0.47700
O 	O 	0.86000 0.07740 0.93300 -0.31500
O 	O 	0.54150 0.05660 0.90850 -0.34500
O 	O 	0.93220 0.18830 0.58290 -0.39300
O 	O 	0.12230 0.34940 0.55590 -0.37900
O 	O 	0.86050 0.15070 0.43570 -0.40900
O 	O 	0.04660 0.31850 0.40920 -0.40700
O 	O 	0.45510 0.42230 0.08460 -0.40200
O 	O 	0.13710 0.40070 0.05910 -0.44500
O 	O 	0.72140 0.31160 0.49460 -0.42500
O 	O 	0.25560 0.06660 0.00040 -0.53200
O 	O 	0.36000 0.42260 0.93300 -0.31800
O 	O 	0.04150 0.44340 0.90850 -0.33600
O 	O 	0.43220 0.31170 0.58290 -0.40200
O 	O 	0.62230 0.15060 0.55590 -0.37600
O 	O 	0.36050 0.34930 0.43570 -0.40700
O 	O 	0.54660 0.18150 0.40920 -0.39500
O 	O 	0.95510 0.07770 0.08460 -0.39900
O 	O 	0.63710 0.09930 0.05910 -0.44200
O 	O 	0.77860 0.81160 0.50540 -0.40500
O 	O 	0.24440 0.56660 0.99960 -0.27500
O 	O 	0.14000 0.92260 0.06700 -0.45400
O 	O 	0.45850 0.94340 0.09150 -0.38600
O 	O 	0.06780 0.81170 0.41710 -0.41200
O 	O 	0.87770 0.65060 0.44410 -0.33900
O 	O 	0.13950 0.84930 0.56430 -0.40600
O 	O 	0.95340 0.68150 0.59080 -0.36100
O 	O 	0.54490 0.57770 0.91540 -0.31300
O 	O 	0.86290 0.59930 0.94090 -0.27400
