data_crystal

_cell_length_a 7.72000
_cell_length_b 21.25000
_cell_length_c 21.25000
_cell_angle_alpha 120.00000
_cell_angle_beta  90.00000
_cell_angle_gamma 90.00000

_symmetry_space_group_name_	'P 1'
_symmetry_space_group_name_H-M	'P 1'

loop_
_symmetry_equiv_pos_as_xyz
  x,y,z

loop_
_atom_site_label
_atom_site_type_symbol
_atom_site_fract_x
_atom_site_fract_y
_atom_site_fract_z
_atom_site_charge
Zn	Zn	0.83333 0.59806 0.29903 1.23300
Zn	Zn	0.16667 0.70097 0.40194 1.23200
Zn	Zn	0.50000 0.70097 0.29903 1.23200
Zn	Zn	0.83333 0.40194 0.70097 1.23200
Zn	Zn	0.16667 0.29903 0.59806 1.23300
Zn	Zn	0.50000 0.29903 0.70097 1.23200
H 	H 	0.72440 0.74640 0.15430 0.01500
H 	H 	0.84710 0.76400 0.06500 0.31400
H 	H 	0.14080 0.63760 0.15680 -0.03800
H 	H 	0.26740 0.65690 0.06960 0.20500
H 	H 	0.05773 0.40790 0.25360 0.01100
H 	H 	0.18043 0.30100 0.23600 0.31300
H 	H 	0.47413 0.51920 0.36240 -0.04200
H 	H 	0.60073 0.41270 0.34310 0.20400
H 	H 	0.39107 0.84570 0.59210 0.02100
H 	H 	0.51377 0.93500 0.69900 0.28900
H 	H 	0.80747 0.84320 0.48080 -0.03300
H 	H 	0.93407 0.93040 0.58730 0.18200
H 	H 	0.72440 0.25360 0.84570 0.02200
H 	H 	0.84710 0.23600 0.93500 0.28700
H 	H 	0.14080 0.36240 0.84320 -0.03100
H 	H 	0.26740 0.34310 0.93040 0.18000
H 	H 	0.05773 0.59210 0.74640 0.01000
H 	H 	0.18043 0.69900 0.76400 0.31200
H 	H 	0.47413 0.48080 0.63760 -0.04200
H 	H 	0.60073 0.58730 0.65690 0.20400
H 	H 	0.39107 0.15430 0.40790 0.01500
H 	H 	0.51377 0.06500 0.30100 0.31600
H 	H 	0.80747 0.15680 0.51920 -0.03800
H 	H 	0.93407 0.06960 0.41270 0.20500
H 	H 	0.60893 0.59210 0.84570 0.02100
H 	H 	0.48623 0.69900 0.93500 0.28900
H 	H 	0.19253 0.48080 0.84320 -0.03300
H 	H 	0.06593 0.58730 0.93040 0.18200
H 	H 	0.27560 0.15430 0.74640 0.01500
H 	H 	0.15290 0.06500 0.76400 0.31400
H 	H 	0.85920 0.15680 0.63760 -0.03800
H 	H 	0.73260 0.06960 0.65690 0.20500
H 	H 	0.94227 0.25360 0.40790 0.01100
H 	H 	0.81957 0.23600 0.30100 0.31300
H 	H 	0.52587 0.36240 0.51920 -0.04200
H 	H 	0.39927 0.34310 0.41270 0.20400
H 	H 	0.60893 0.40790 0.15430 0.01500
H 	H 	0.48623 0.30100 0.06500 0.31600
H 	H 	0.19253 0.51920 0.15680 -0.03800
H 	H 	0.06593 0.41270 0.06960 0.20500
H 	H 	0.27560 0.84570 0.25360 0.02200
H 	H 	0.15290 0.93500 0.23600 0.28700
H 	H 	0.85920 0.84320 0.36240 -0.03100
H 	H 	0.73260 0.93040 0.34310 0.18000
H 	H 	0.94227 0.74640 0.59210 0.01000
H 	H 	0.81957 0.76400 0.69900 0.31200
H 	H 	0.52587 0.63760 0.48080 -0.04200
H 	H 	0.39927 0.65690 0.58730 0.20400
C 	C 	0.82830 0.67700 0.21960 0.49100
C 	C 	0.91540 0.68930 0.16280 -0.28100
C 	C 	0.83350 0.72730 0.13650 0.28400
C 	C 	0.90770 0.73880 0.08330 -0.35300
C 	C 	0.08130 0.66290 0.13830 0.26800
C 	C 	0.15660 0.67480 0.08600 -0.37200
C 	C 	0.07380 0.71200 0.05730 0.44100
C 	C 	0.04110 0.74470 0.95720 0.95600
C 	C 	0.16163 0.54260 0.32300 0.49300
C 	C 	0.24873 0.47350 0.31070 -0.29000
C 	C 	0.16683 0.40920 0.27270 0.29200
C 	C 	0.24103 0.34450 0.26120 -0.36900
C 	C 	0.41463 0.47540 0.33710 0.27500
C 	C 	0.48993 0.41120 0.32520 -0.38800
C 	C 	0.40713 0.34530 0.28800 0.45500
C 	C 	0.37443 0.21250 0.25530 0.99100
C 	C 	0.49497 0.78040 0.45740 0.48400
C 	C 	0.58207 0.83720 0.52650 -0.26800
C 	C 	0.50017 0.86350 0.59080 0.25900
C 	C 	0.57437 0.91670 0.65550 -0.33000
C 	C 	0.74797 0.86170 0.52460 0.24200
C 	C 	0.82327 0.91400 0.58880 -0.34800
C 	C 	0.74047 0.94270 0.65470 0.39200
C 	C 	0.70777 0.04280 0.78750 0.98100
C 	C 	0.82830 0.32300 0.78040 0.48200
C 	C 	0.91540 0.31070 0.83720 -0.26200
C 	C 	0.83350 0.27270 0.86350 0.25300
C 	C 	0.90770 0.26120 0.91670 -0.32300
C 	C 	0.08130 0.33710 0.86170 0.23600
C 	C 	0.15660 0.32520 0.91400 -0.34200
C 	C 	0.07380 0.28800 0.94270 0.38500
C 	C 	0.04110 0.25530 0.04280 0.97800
C 	C 	0.16163 0.45740 0.67700 0.49300
C 	C 	0.24873 0.52650 0.68930 -0.29000
C 	C 	0.16683 0.59080 0.72730 0.29200
C 	C 	0.24103 0.65550 0.73880 -0.36900
C 	C 	0.41463 0.52460 0.66290 0.27600
C 	C 	0.48993 0.58880 0.67480 -0.38800
C 	C 	0.40713 0.65470 0.71200 0.45500
C 	C 	0.37443 0.78750 0.74470 0.99300
C 	C 	0.49497 0.21960 0.54260 0.49100
C 	C 	0.58207 0.16280 0.47350 -0.28100
C 	C 	0.50017 0.13650 0.40920 0.28500
C 	C 	0.57437 0.08330 0.34450 -0.35300
C 	C 	0.74797 0.13830 0.47540 0.26800
C 	C 	0.82327 0.08600 0.41120 -0.37200
C 	C 	0.74047 0.05730 0.34530 0.44000
C 	C 	0.70777 0.95720 0.21250 0.95500
C 	C 	0.50503 0.45740 0.78040 0.48400
C 	C 	0.41793 0.52650 0.83720 -0.26800
C 	C 	0.49983 0.59080 0.86350 0.25900
C 	C 	0.42563 0.65550 0.91670 -0.33000
C 	C 	0.25203 0.52460 0.86170 0.24200
C 	C 	0.17673 0.58880 0.91400 -0.34800
C 	C 	0.25953 0.65470 0.94270 0.39200
C 	C 	0.29223 0.78750 0.04280 0.98100
C 	C 	0.17170 0.21960 0.67700 0.49100
C 	C 	0.08460 0.16280 0.68930 -0.28100
C 	C 	0.16650 0.13650 0.72730 0.28400
C 	C 	0.09230 0.08330 0.73880 -0.35300
C 	C 	0.91870 0.13830 0.66290 0.26800
C 	C 	0.84340 0.08600 0.67480 -0.37200
C 	C 	0.92620 0.05730 0.71200 0.44100
C 	C 	0.95890 0.95720 0.74470 0.95600
C 	C 	0.83837 0.32300 0.54260 0.49300
C 	C 	0.75127 0.31070 0.47350 -0.29000
C 	C 	0.83317 0.27270 0.40920 0.29200
C 	C 	0.75897 0.26120 0.34450 -0.36900
C 	C 	0.58537 0.33710 0.47540 0.27500
C 	C 	0.51007 0.32520 0.41120 -0.38800
C 	C 	0.59287 0.28800 0.34530 0.45500
C 	C 	0.62557 0.25530 0.21250 0.99100
C 	C 	0.50503 0.54260 0.21960 0.49100
C 	C 	0.41793 0.47350 0.16280 -0.28100
C 	C 	0.49983 0.40920 0.13650 0.28500
C 	C 	0.42563 0.34450 0.08330 -0.35300
C 	C 	0.25203 0.47540 0.13830 0.26800
C 	C 	0.17673 0.41120 0.08600 -0.37200
C 	C 	0.25953 0.34530 0.05730 0.44000
C 	C 	0.29223 0.21250 0.95720 0.95500
C 	C 	0.17170 0.78040 0.32300 0.48200
C 	C 	0.08460 0.83720 0.31070 -0.26200
C 	C 	0.16650 0.86350 0.27270 0.25300
C 	C 	0.09230 0.91670 0.26120 -0.32300
C 	C 	0.91870 0.86170 0.33710 0.23600
C 	C 	0.84340 0.91400 0.32520 -0.34200
C 	C 	0.92620 0.94270 0.28800 0.38500
C 	C 	0.95890 0.04280 0.25530 0.97800
C 	C 	0.83837 0.67700 0.45740 0.49300
C 	C 	0.75127 0.68930 0.52650 -0.29000
C 	C 	0.83317 0.72730 0.59080 0.29200
C 	C 	0.75897 0.73880 0.65550 -0.36900
C 	C 	0.58537 0.66290 0.52460 0.27600
C 	C 	0.51007 0.67480 0.58880 -0.38800
C 	C 	0.59287 0.71200 0.65470 0.45500
C 	C 	0.62557 0.74470 0.78750 0.99300
C 	C 	0.16667 0.72310 -0.00000 -0.49800
C 	C 	0.50000 0.27690 0.27690 -0.56200
C 	C 	0.83333 0.00000 0.72310 -0.49800
C 	C 	0.16667 0.27690 -0.00000 -0.49500
C 	C 	0.50000 0.72310 0.72310 -0.56400
C 	C 	0.83333 0.00000 0.27690 -0.49500
O 	O 	0.90730 0.63760 0.23890 -0.52600
O 	O 	0.68570 0.70660 0.24220 -0.50600
O 	O 	0.24063 0.60130 0.36240 -0.52700
O 	O 	0.01903 0.53560 0.29340 -0.50700
O 	O 	0.57397 0.76110 0.39870 -0.52700
O 	O 	0.35237 0.75780 0.46440 -0.50500
O 	O 	0.90730 0.36240 0.76110 -0.52500
O 	O 	0.68570 0.29340 0.75780 -0.50500
O 	O 	0.24063 0.39870 0.63760 -0.52800
O 	O 	0.01903 0.46440 0.70660 -0.50800
O 	O 	0.57397 0.23890 0.60130 -0.52600
O 	O 	0.35237 0.24220 0.53560 -0.50600
O 	O 	0.42603 0.39870 0.76110 -0.52700
O 	O 	0.64763 0.46440 0.75780 -0.50500
O 	O 	0.09270 0.23890 0.63760 -0.52600
O 	O 	0.31430 0.24220 0.70660 -0.50600
O 	O 	0.75937 0.36240 0.60130 -0.52700
O 	O 	0.98097 0.29340 0.53560 -0.50700
O 	O 	0.42603 0.60130 0.23890 -0.52600
O 	O 	0.64763 0.53560 0.24220 -0.50600
O 	O 	0.09270 0.76110 0.36240 -0.52500
O 	O 	0.31430 0.75780 0.29340 -0.50500
O 	O 	0.75937 0.63760 0.39870 -0.52800
O 	O 	0.98097 0.70660 0.46440 -0.50800
F 	F 	0.12250 0.74650 0.90240 -0.39900
F 	F 	0.91210 0.69770 0.92850 -0.48500
F 	F 	0.96970 0.81010 0.99710 -0.37400
F 	F 	0.45583 0.15590 0.25350 -0.39400
F 	F 	0.24543 0.23080 0.30230 -0.48500
F 	F 	0.30303 0.18700 0.18990 -0.35500
F 	F 	0.78917 0.09760 0.84410 -0.39700
F 	F 	0.57877 0.07150 0.76920 -0.47900
F 	F 	0.63637 0.00290 0.81300 -0.34700
F 	F 	0.12250 0.25350 0.09760 -0.39200
F 	F 	0.91210 0.30230 0.07150 -0.47700
F 	F 	0.96970 0.18990 0.00290 -0.34000
F 	F 	0.45583 0.84410 0.74650 -0.40400
F 	F 	0.24543 0.76920 0.69770 -0.48700
F 	F 	0.30303 0.81300 0.81010 -0.36800
F 	F 	0.78917 0.90240 0.15590 -0.39500
F 	F 	0.57877 0.92850 0.23080 -0.48600
F 	F 	0.63637 0.99710 0.18700 -0.36900
F 	F 	0.21083 0.84410 0.09760 -0.39700
F 	F 	0.42123 0.76920 0.07150 -0.47900
F 	F 	0.36363 0.81300 0.00290 -0.34700
F 	F 	0.87750 0.90240 0.74650 -0.39900
F 	F 	0.08790 0.92850 0.69770 -0.48500
F 	F 	0.03030 0.99710 0.81010 -0.37400
F 	F 	0.54417 0.25350 0.15590 -0.39400
F 	F 	0.75457 0.30230 0.23080 -0.48500
F 	F 	0.69697 0.18990 0.18700 -0.35500
F 	F 	0.21083 0.15590 0.90240 -0.39500
F 	F 	0.42123 0.23080 0.92850 -0.48600
F 	F 	0.36363 0.18700 0.99710 -0.36900
F 	F 	0.87750 0.09760 0.25350 -0.39200
F 	F 	0.08790 0.07150 0.30230 -0.47700
F 	F 	0.03030 0.00290 0.18990 -0.34000
F 	F 	0.54417 0.74650 0.84410 -0.40400
F 	F 	0.75457 0.69770 0.76920 -0.48700
F 	F 	0.69697 0.81010 0.81300 -0.36800
