data_crystal

_cell_length_a 9.72600
_cell_length_b 9.91100
_cell_length_c 10.45000
_cell_angle_alpha 99.72000
_cell_angle_beta  111.11000
_cell_angle_gamma 108.42000

_symmetry_space_group_name_	'P 1'
_symmetry_space_group_name_H-M	'P 1'

loop_
_symmetry_equiv_pos_as_xyz
  x,y,z

loop_
_atom_site_label
_atom_site_type_symbol
_atom_site_fract_x
_atom_site_fract_y
_atom_site_fract_z
_atom_site_charge
Zn	Zn	0.42720 0.60260 0.78930 1.18700
Zn	Zn	0.57280 0.39740 0.21070 1.18700
Zn	Zn	0.50000 0.50000 0.50000 1.24200
H 	H 	0.16740 0.05200 0.38870 0.05400
H 	H 	0.02710 0.18780 0.68300 0.04500
H 	H 	0.84760 0.57670 0.09680 0.03100
H 	H 	0.93080 0.45260 0.75600 0.03900
H 	H 	0.35430 0.74310 0.40140 0.04900
H 	H 	0.66920 0.10640 0.74400 0.04500
H 	H 	0.83260 0.94800 0.61130 0.05400
H 	H 	0.97290 0.81220 0.31700 0.04500
H 	H 	0.15240 0.42330 0.90320 0.03100
H 	H 	0.06920 0.54740 0.24400 0.03900
H 	H 	0.64570 0.25690 0.59860 0.04900
H 	H 	0.33080 0.89360 0.25600 0.04500
C 	C 	0.24630 0.30150 0.59120 0.38600
C 	C 	0.11900 0.14520 0.54510 -0.08700
C 	C 	0.10040 0.03150 0.43420 -0.02000
C 	C 	0.01710 0.11250 0.60930 -0.01700
C 	C 	0.71280 0.52750 0.81060 0.38500
C 	C 	0.86210 0.51430 0.90950 -0.08900
C 	C 	0.90820 0.54500 0.05740 -0.02800
C 	C 	0.95790 0.47090 0.85410 -0.02100
C 	C 	0.52750 0.81150 0.68130 0.32900
C 	C 	0.51620 0.91000 0.58750 -0.07800
C 	C 	0.41350 0.84650 0.44140 -0.02500
C 	C 	0.60110 0.06320 0.64530 -0.01800
C 	C 	0.75370 0.69850 0.40880 0.38600
C 	C 	0.88100 0.85480 0.45490 -0.08700
C 	C 	0.89960 0.96850 0.56580 -0.02000
C 	C 	0.98290 0.88750 0.39070 -0.01700
C 	C 	0.28720 0.47250 0.18940 0.38500
C 	C 	0.13790 0.48570 0.09050 -0.08900
C 	C 	0.09180 0.45500 0.94260 -0.02800
C 	C 	0.04210 0.52910 0.14590 -0.02100
C 	C 	0.47250 0.18850 0.31870 0.32900
C 	C 	0.48380 0.09000 0.41250 -0.07800
C 	C 	0.58650 0.15350 0.55860 -0.02500
C 	C 	0.39890 0.93680 0.35470 -0.01800
O 	O 	0.33170 0.32670 0.52590 -0.44400
O 	O 	0.25830 0.39640 0.69730 -0.49800
O 	O 	0.69180 0.52420 0.68540 -0.44600
O 	O 	0.61790 0.54100 0.86490 -0.47900
O 	O 	0.45560 0.66900 0.62150 -0.55300
O 	O 	0.59700 0.86650 0.81580 -0.36800
O 	O 	0.66830 0.67330 0.47410 -0.44400
O 	O 	0.74170 0.60360 0.30270 -0.49800
O 	O 	0.30820 0.47580 0.31460 -0.44600
O 	O 	0.38210 0.45900 0.13510 -0.47900
O 	O 	0.54440 0.33100 0.37850 -0.55300
O 	O 	0.40300 0.13350 0.18420 -0.36800
