data_crystal

_cell_length_a 14.04930
_cell_length_b 14.04930
_cell_length_c 26.29800
_cell_angle_alpha 78.89840
_cell_angle_beta  78.89840
_cell_angle_gamma 79.92860

_symmetry_space_group_name_	'P 1'
_symmetry_space_group_name_H-M	'P 1'

loop_
_symmetry_equiv_pos_as_xyz
  x,y,z

loop_
_atom_site_label
_atom_site_type_symbol
_atom_site_fract_x
_atom_site_fract_y
_atom_site_fract_z
_atom_site_charge
Zn	Zn	0.19057 0.88893 0.08692 1.22000
Zn	Zn	0.42160 0.82790 0.06706 1.21500
Zn	Zn	0.88893 0.19057 0.58692 1.22100
Zn	Zn	0.82790 0.42160 0.56706 1.21600
Zn	Zn	0.11107 0.80943 0.41308 1.22100
Zn	Zn	0.17210 0.57840 0.43294 1.21600
Zn	Zn	0.80943 0.11107 0.91308 1.22100
Zn	Zn	0.57840 0.17210 0.93294 1.21600
H 	H 	0.16540 0.62540 0.19450 0.03200
H 	H 	0.14260 0.47080 0.23970 0.09400
H 	H 	0.38120 0.35700 0.14800 0.07600
H 	H 	0.40890 0.51370 0.10720 0.02700
H 	H 	0.29090 0.12590 0.09490 0.03400
H 	H 	0.25170 0.26870 0.13000 0.07100
H 	H 	0.31550 0.11950 0.26890 0.07700
H 	H 	0.35870 0.97870 0.23280 0.03600
H 	H 	0.86620 0.19140 0.42250 0.02000
H 	H 	0.89250 0.19570 0.33290 0.07700
H 	H 	0.98710 0.45670 0.31190 0.09200
H 	H 	0.95430 0.45510 0.40100 0.02200
H 	H 	0.99980 0.19440 0.11150 0.03600
H 	H 	0.94170 0.31990 0.15900 0.07800
H 	H 	0.04630 0.15570 0.28470 0.07000
H 	H 	0.10480 0.02960 0.23710 0.05100
H 	H 	0.00660 0.82540 0.15450 0.00100
H 	H 	0.84860 0.81220 0.14990 0.09600
H 	H 	0.91630 0.86730 0.99330 0.10100
H 	H 	0.07010 0.88590 0.00250 0.00100
H 	H 	0.56810 0.74390 0.13380 -0.00200
H 	H 	0.72950 0.74250 0.13750 0.09500
H 	H 	0.75670 0.90630 0.99410 0.08500
H 	H 	0.59450 0.90190 0.99390 -0.00700
H 	H 	0.62540 0.16540 0.69450 0.03200
H 	H 	0.47080 0.14260 0.73970 0.09400
H 	H 	0.35700 0.38120 0.64800 0.07600
H 	H 	0.51370 0.40890 0.60720 0.02700
H 	H 	0.12590 0.29090 0.59490 0.03400
H 	H 	0.26870 0.25170 0.63000 0.07100
H 	H 	0.11950 0.31550 0.76890 0.07700
H 	H 	0.97870 0.35870 0.73280 0.03600
H 	H 	0.19140 0.86620 0.92250 0.02000
H 	H 	0.19570 0.89250 0.83290 0.07700
H 	H 	0.45670 0.98710 0.81190 0.09200
H 	H 	0.45510 0.95430 0.90100 0.02200
H 	H 	0.19440 0.99980 0.61150 0.03600
H 	H 	0.31990 0.94170 0.65900 0.07800
H 	H 	0.15570 0.04630 0.78470 0.07000
H 	H 	0.02960 0.10480 0.73710 0.05100
H 	H 	0.82540 0.00660 0.65450 0.00100
H 	H 	0.81220 0.84860 0.64990 0.09600
H 	H 	0.86730 0.91630 0.49330 0.10100
H 	H 	0.88590 0.07010 0.50250 0.00100
H 	H 	0.74390 0.56810 0.63380 -0.00200
H 	H 	0.74250 0.72950 0.63750 0.09500
H 	H 	0.90630 0.75670 0.49410 0.08500
H 	H 	0.90190 0.59450 0.49390 -0.00700
H 	H 	0.37460 0.83460 0.30550 0.03200
H 	H 	0.52920 0.85740 0.26030 0.09400
H 	H 	0.64300 0.61880 0.35200 0.07600
H 	H 	0.48630 0.59110 0.39280 0.02700
H 	H 	0.87410 0.70910 0.40510 0.03400
H 	H 	0.73130 0.74830 0.37000 0.07100
H 	H 	0.88050 0.68450 0.23110 0.07700
H 	H 	0.02130 0.64130 0.26720 0.03600
H 	H 	0.80860 0.13380 0.07750 0.02000
H 	H 	0.80430 0.10750 0.16710 0.07700
H 	H 	0.54330 0.01290 0.18810 0.09200
H 	H 	0.54490 0.04570 0.09900 0.02200
H 	H 	0.80560 0.00020 0.38850 0.03600
H 	H 	0.68010 0.05830 0.34100 0.07800
H 	H 	0.84430 0.95370 0.21530 0.07000
H 	H 	0.97040 0.89520 0.26290 0.05100
H 	H 	0.17460 0.99340 0.34550 0.00100
H 	H 	0.18780 0.15140 0.35010 0.09600
H 	H 	0.13270 0.08370 0.50670 0.10100
H 	H 	0.11410 0.92990 0.49750 0.00100
H 	H 	0.25610 0.43190 0.36620 -0.00200
H 	H 	0.25750 0.27050 0.36250 0.09500
H 	H 	0.09370 0.24330 0.50590 0.08500
H 	H 	0.09810 0.40550 0.50610 -0.00700
H 	H 	0.83460 0.37460 0.80550 0.03200
H 	H 	0.85740 0.52920 0.76030 0.09400
H 	H 	0.61880 0.64300 0.85200 0.07600
H 	H 	0.59110 0.48630 0.89280 0.02700
H 	H 	0.70910 0.87410 0.90510 0.03400
H 	H 	0.74830 0.73130 0.87000 0.07100
H 	H 	0.68450 0.88050 0.73110 0.07700
H 	H 	0.64130 0.02130 0.76720 0.03600
H 	H 	0.13380 0.80860 0.57750 0.02000
H 	H 	0.10750 0.80430 0.66710 0.07700
H 	H 	0.01290 0.54330 0.68810 0.09200
H 	H 	0.04570 0.54490 0.59900 0.02200
H 	H 	0.00020 0.80560 0.88850 0.03600
H 	H 	0.05830 0.68010 0.84100 0.07800
H 	H 	0.95370 0.84430 0.71530 0.07000
H 	H 	0.89520 0.97040 0.76290 0.05100
H 	H 	0.99340 0.17460 0.84550 0.00100
H 	H 	0.15140 0.18780 0.85010 0.09600
H 	H 	0.08370 0.13270 0.00670 0.10100
H 	H 	0.92990 0.11410 0.99750 0.00100
H 	H 	0.43190 0.25610 0.86620 -0.00200
H 	H 	0.27050 0.25750 0.86250 0.09500
H 	H 	0.24330 0.09370 0.00590 0.08500
H 	H 	0.40550 0.09810 0.00610 -0.00700
C 	C 	0.30367 0.68627 0.11924 0.39800
C 	C 	0.28848 0.58428 0.14669 -0.12800
C 	C 	0.20966 0.57126 0.18573 0.05900
C 	C 	0.19500 0.47860 0.21231 -0.10700
C 	C 	0.25869 0.39729 0.19801 0.05100
C 	C 	0.33840 0.41100 0.15803 -0.11600
C 	C 	0.35431 0.50471 0.13300 0.05500
C 	C 	0.35982 0.94482 0.13764 0.32100
C 	C 	0.32956 0.03716 0.16022 -0.10100
C 	C 	0.29664 0.12484 0.12963 0.03100
C 	C 	0.27242 0.21022 0.15083 -0.09800
C 	C 	0.27871 0.20931 0.20298 0.03700
C 	C 	0.31111 0.12111 0.23391 -0.09400
C 	C 	0.33645 0.03705 0.21229 0.03200
C 	C 	0.24375 0.29875 0.22824 0.09200
C 	C 	0.88664 0.32364 0.47885 0.39800
C 	C 	0.90762 0.32256 0.42098 -0.13600
C 	C 	0.88952 0.24512 0.40017 0.06200
C 	C 	0.90596 0.24736 0.34655 -0.12200
C 	C 	0.94270 0.32730 0.31257 0.05800
C 	C 	0.96160 0.40380 0.33399 -0.11400
C 	C 	0.94306 0.40246 0.38735 0.06400
C 	C 	0.10776 0.02196 0.13713 0.29400
C 	C 	0.06067 0.09987 0.16918 -0.07900
C 	C 	0.00984 0.18704 0.14611 0.01700
C 	C 	0.97480 0.26180 0.17464 -0.09000
C 	C 	0.98811 0.25151 0.22662 0.03700
C 	C 	0.03735 0.16355 0.24987 -0.08600
C 	C 	0.07273 0.08833 0.22135 0.01600
C 	C 	0.95770 0.33690 0.25464 0.08600
C 	C 	0.98778 0.83438 0.12161 0.08900
C 	C 	0.89309 0.82529 0.11919 -0.14900
C 	C 	0.86405 0.83585 0.07053 0.07600
C 	C 	0.93270 0.85870 0.02674 -0.15500
C 	C 	0.02545 0.86885 0.03259 0.09600
C 	C 	0.60660 0.77740 0.10561 0.09000
C 	C 	0.70313 0.77693 0.10831 -0.13600
C 	C 	0.76141 0.82841 0.06696 0.06100
C 	C 	0.71931 0.87391 0.02325 -0.13500
C 	C 	0.62211 0.87071 0.02331 0.08200
C 	C 	0.68627 0.30367 0.61924 0.39800
C 	C 	0.58428 0.28848 0.64669 -0.12800
C 	C 	0.57126 0.20966 0.68573 0.05900
C 	C 	0.47860 0.19500 0.71231 -0.10700
C 	C 	0.39729 0.25869 0.69801 0.05100
C 	C 	0.41100 0.33840 0.65803 -0.11600
C 	C 	0.50471 0.35431 0.63300 0.05500
C 	C 	0.94482 0.35982 0.63764 0.32100
C 	C 	0.03716 0.32956 0.66022 -0.10100
C 	C 	0.12484 0.29664 0.62963 0.03200
C 	C 	0.21022 0.27242 0.65083 -0.09800
C 	C 	0.20931 0.27871 0.70298 0.03700
C 	C 	0.12111 0.31111 0.73391 -0.09400
C 	C 	0.03705 0.33645 0.71229 0.03200
C 	C 	0.29875 0.24375 0.72824 0.09200
C 	C 	0.32364 0.88664 0.97885 0.39800
C 	C 	0.32256 0.90762 0.92098 -0.13600
C 	C 	0.24512 0.88952 0.90017 0.06200
C 	C 	0.24736 0.90596 0.84655 -0.12200
C 	C 	0.32730 0.94270 0.81257 0.05800
C 	C 	0.40380 0.96160 0.83399 -0.11400
C 	C 	0.40246 0.94306 0.88735 0.06500
C 	C 	0.02196 0.10776 0.63713 0.29400
C 	C 	0.09987 0.06067 0.66918 -0.07900
C 	C 	0.18704 0.00984 0.64611 0.01700
C 	C 	0.26180 0.97480 0.67464 -0.09000
C 	C 	0.25151 0.98811 0.72662 0.03700
C 	C 	0.16355 0.03735 0.74987 -0.08600
C 	C 	0.08833 0.07273 0.72135 0.01600
C 	C 	0.33690 0.95770 0.75464 0.08600
C 	C 	0.83438 0.98778 0.62161 0.08900
C 	C 	0.82529 0.89309 0.61919 -0.14900
C 	C 	0.83585 0.86405 0.57053 0.07600
C 	C 	0.85870 0.93270 0.52674 -0.15500
C 	C 	0.86885 0.02545 0.53259 0.09700
C 	C 	0.77740 0.60660 0.60561 0.09000
C 	C 	0.77693 0.70313 0.60831 -0.13600
C 	C 	0.82841 0.76141 0.56696 0.06100
C 	C 	0.87391 0.71931 0.52325 -0.13500
C 	C 	0.87071 0.62211 0.52331 0.08200
C 	C 	0.31373 0.69633 0.38076 0.39800
C 	C 	0.41572 0.71152 0.35331 -0.12800
C 	C 	0.42874 0.79034 0.31427 0.05900
C 	C 	0.52140 0.80500 0.28769 -0.10700
C 	C 	0.60271 0.74131 0.30199 0.05100
C 	C 	0.58900 0.66160 0.34197 -0.11600
C 	C 	0.49529 0.64569 0.36700 0.05500
C 	C 	0.05518 0.64018 0.36236 0.32100
C 	C 	0.96284 0.67044 0.33978 -0.10100
C 	C 	0.87516 0.70336 0.37037 0.03200
C 	C 	0.78978 0.72758 0.34917 -0.09800
C 	C 	0.79069 0.72129 0.29702 0.03700
C 	C 	0.87889 0.68889 0.26609 -0.09400
C 	C 	0.96295 0.66355 0.28771 0.03200
C 	C 	0.70125 0.75625 0.27176 0.09200
C 	C 	0.67636 0.11336 0.02115 0.39800
C 	C 	0.67744 0.09238 0.07902 -0.13600
C 	C 	0.75488 0.11048 0.09983 0.06200
C 	C 	0.75264 0.09404 0.15345 -0.12200
C 	C 	0.67270 0.05730 0.18743 0.05800
C 	C 	0.59620 0.03840 0.16601 -0.11400
C 	C 	0.59754 0.05694 0.11265 0.06500
C 	C 	0.97804 0.89224 0.36287 0.29400
C 	C 	0.90013 0.93933 0.33082 -0.07900
C 	C 	0.81296 0.99016 0.35389 0.01700
C 	C 	0.73820 0.02520 0.32536 -0.09000
C 	C 	0.74849 0.01189 0.27338 0.03700
C 	C 	0.83645 0.96265 0.25013 -0.08600
C 	C 	0.91167 0.92727 0.27865 0.01600
C 	C 	0.66310 0.04230 0.24536 0.08600
C 	C 	0.16562 0.01222 0.37839 0.08900
C 	C 	0.17471 0.10691 0.38081 -0.14900
C 	C 	0.16415 0.13595 0.42947 0.07600
C 	C 	0.14130 0.06730 0.47326 -0.15500
C 	C 	0.13115 0.97455 0.46741 0.09700
C 	C 	0.22260 0.39340 0.39439 0.09000
C 	C 	0.22307 0.29687 0.39169 -0.13600
C 	C 	0.17159 0.23859 0.43304 0.06100
C 	C 	0.12609 0.28069 0.47675 -0.13500
C 	C 	0.12929 0.37789 0.47669 0.08200
C 	C 	0.69633 0.31373 0.88076 0.39800
C 	C 	0.71152 0.41572 0.85331 -0.12800
C 	C 	0.79034 0.42874 0.81427 0.05900
C 	C 	0.80500 0.52140 0.78769 -0.10700
C 	C 	0.74131 0.60271 0.80199 0.05100
C 	C 	0.66160 0.58900 0.84197 -0.11600
C 	C 	0.64569 0.49529 0.86700 0.05500
C 	C 	0.64018 0.05518 0.86236 0.32100
C 	C 	0.67044 0.96284 0.83978 -0.10100
C 	C 	0.70336 0.87516 0.87037 0.03100
C 	C 	0.72758 0.78978 0.84917 -0.09800
C 	C 	0.72129 0.79069 0.79702 0.03700
C 	C 	0.68889 0.87889 0.76609 -0.09400
C 	C 	0.66355 0.96295 0.78771 0.03200
C 	C 	0.75625 0.70125 0.77176 0.09200
C 	C 	0.11336 0.67636 0.52115 0.39800
C 	C 	0.09238 0.67744 0.57902 -0.13600
C 	C 	0.11048 0.75488 0.59983 0.06200
C 	C 	0.09404 0.75264 0.65345 -0.12200
C 	C 	0.05730 0.67270 0.68743 0.05800
C 	C 	0.03840 0.59620 0.66601 -0.11400
C 	C 	0.05694 0.59754 0.61265 0.06400
C 	C 	0.89224 0.97804 0.86287 0.29400
C 	C 	0.93933 0.90013 0.83082 -0.07900
C 	C 	0.99016 0.81296 0.85389 0.01700
C 	C 	0.02520 0.73820 0.82536 -0.09000
C 	C 	0.01189 0.74849 0.77338 0.03700
C 	C 	0.96265 0.83645 0.75013 -0.08600
C 	C 	0.92727 0.91167 0.77865 0.01600
C 	C 	0.04230 0.66310 0.74536 0.08600
C 	C 	0.01222 0.16562 0.87839 0.08900
C 	C 	0.10691 0.17471 0.88081 -0.14900
C 	C 	0.13595 0.16415 0.92947 0.07600
C 	C 	0.06730 0.14130 0.97326 -0.15500
C 	C 	0.97455 0.13115 0.96741 0.09600
C 	C 	0.39340 0.22260 0.89439 0.09000
C 	C 	0.29687 0.22307 0.89169 -0.13600
C 	C 	0.23859 0.17159 0.93304 0.06100
C 	C 	0.28069 0.12609 0.97675 -0.13500
C 	C 	0.37789 0.12929 0.97669 0.08200
N 	N 	0.05472 0.85560 0.07861 -0.24200
N 	N 	0.56555 0.82393 0.06436 -0.26800
N 	N 	0.85560 0.05472 0.57861 -0.24200
N 	N 	0.82393 0.56555 0.56436 -0.26800
N 	N 	0.14440 0.94528 0.42139 -0.24200
N 	N 	0.17607 0.43445 0.43564 -0.26800
N 	N 	0.94528 0.14440 0.92139 -0.24200
N 	N 	0.43445 0.17607 0.93564 -0.26800
O 	O 	0.23183 0.75303 0.12328 -0.48300
O 	O 	0.38857 0.69737 0.09384 -0.48900
O 	O 	0.33546 0.94328 0.09222 -0.53300
O 	O 	0.41050 0.87442 0.15992 -0.33000
O 	O 	0.20125 0.29041 0.27383 -0.20000
O 	O 	0.88906 0.24224 0.50972 -0.48400
O 	O 	0.86772 0.40694 0.49275 -0.48300
O 	O 	0.12109 0.04179 0.08790 -0.38100
O 	O 	0.13549 0.93629 0.16048 -0.37500
O 	O 	0.94681 0.42061 0.22842 -0.18900
O 	O 	0.75303 0.23183 0.62328 -0.48300
O 	O 	0.69737 0.38857 0.59384 -0.48900
O 	O 	0.94328 0.33546 0.59222 -0.53300
O 	O 	0.87442 0.41050 0.65992 -0.33000
O 	O 	0.29041 0.20125 0.77383 -0.20000
O 	O 	0.24224 0.88906 0.00972 -0.48400
O 	O 	0.40694 0.86772 0.99275 -0.48300
O 	O 	0.04179 0.12109 0.58790 -0.38100
O 	O 	0.93629 0.13549 0.66048 -0.37500
O 	O 	0.42061 0.94681 0.72842 -0.18900
O 	O 	0.24697 0.76817 0.37672 -0.48300
O 	O 	0.30263 0.61143 0.40616 -0.48900
O 	O 	0.05672 0.66454 0.40778 -0.53300
O 	O 	0.12558 0.58950 0.34008 -0.33000
O 	O 	0.70959 0.79875 0.22617 -0.20000
O 	O 	0.75776 0.11094 0.99028 -0.48400
O 	O 	0.59306 0.13228 0.00725 -0.48300
O 	O 	0.95821 0.87891 0.41210 -0.38100
O 	O 	0.06371 0.86451 0.33952 -0.37500
O 	O 	0.57939 0.05319 0.27158 -0.18900
O 	O 	0.76817 0.24697 0.87672 -0.48300
O 	O 	0.61143 0.30263 0.90616 -0.48900
O 	O 	0.66454 0.05672 0.90778 -0.53300
O 	O 	0.58950 0.12558 0.84008 -0.33000
O 	O 	0.79875 0.70959 0.72617 -0.20000
O 	O 	0.11094 0.75776 0.49028 -0.48400
O 	O 	0.13228 0.59306 0.50725 -0.48300
O 	O 	0.87891 0.95821 0.91210 -0.38100
O 	O 	0.86451 0.06371 0.83952 -0.37500
O 	O 	0.05319 0.57939 0.77158 -0.18900
