data_crystal

_cell_length_a 14.01370
_cell_length_b 14.01370
_cell_length_c 26.04100
_cell_angle_alpha 79.24910
_cell_angle_beta  79.24910
_cell_angle_gamma 78.61070

_symmetry_space_group_name_	'P 1'
_symmetry_space_group_name_H-M	'P 1'

loop_
_symmetry_equiv_pos_as_xyz
  x,y,z

loop_
_atom_site_label
_atom_site_type_symbol
_atom_site_fract_x
_atom_site_fract_y
_atom_site_fract_z
_atom_site_charge
Zn	Zn	0.19834 0.88352 0.08743 1.22000
Zn	Zn	0.42889 0.82033 0.06868 1.21500
Zn	Zn	0.88352 0.19834 0.58743 1.22000
Zn	Zn	0.82033 0.42889 0.56868 1.21500
Zn	Zn	0.11648 0.80166 0.41257 1.22100
Zn	Zn	0.17967 0.57111 0.43132 1.21600
Zn	Zn	0.80166 0.11648 0.91257 1.22100
Zn	Zn	0.57111 0.17967 0.93132 1.21600
H 	H 	0.04260 0.15880 0.28450 0.07000
H 	H 	0.75750 0.91190 0.99570 0.08600
H 	H 	0.59580 0.90380 0.99560 -0.00700
H 	H 	0.36270 0.97230 0.23490 0.03700
H 	H 	0.10540 0.03020 0.23660 0.05100
H 	H 	0.42260 0.50220 0.11250 0.02500
H 	H 	0.25520 0.26660 0.13170 0.07000
H 	H 	0.85550 0.19870 0.42160 0.02200
H 	H 	0.99880 0.19320 0.10950 0.03600
H 	H 	0.29220 0.12260 0.09620 0.03700
H 	H 	0.31830 0.11290 0.27190 0.07500
H 	H 	0.39010 0.34730 0.15340 0.08000
H 	H 	0.58230 0.73170 0.13220 -0.00100
H 	H 	0.92100 0.87040 0.99290 0.10400
H 	H 	0.74360 0.73360 0.13540 0.09400
H 	H 	0.18190 0.62470 0.20160 0.02900
H 	H 	0.07590 0.88310 0.00220 -0.00200
H 	H 	0.94660 0.45900 0.40190 0.02400
H 	H 	0.85770 0.80610 0.15010 0.09600
H 	H 	0.01700 0.81600 0.15490 0.00100
H 	H 	0.15880 0.47140 0.24670 0.09900
H 	H 	0.93530 0.31990 0.15680 0.07700
H 	H 	0.88250 0.20190 0.33030 0.07600
H 	H 	0.97800 0.46120 0.31130 0.09000
H 	H 	0.15880 0.04260 0.78450 0.07000
H 	H 	0.91190 0.75750 0.49570 0.08600
H 	H 	0.90380 0.59580 0.49560 -0.00700
H 	H 	0.97230 0.36270 0.73490 0.03700
H 	H 	0.03020 0.10540 0.73660 0.05100
H 	H 	0.50220 0.42260 0.61250 0.02500
H 	H 	0.26660 0.25520 0.63170 0.07000
H 	H 	0.19870 0.85550 0.92160 0.02200
H 	H 	0.19320 0.99880 0.60950 0.03600
H 	H 	0.12260 0.29220 0.59620 0.03700
H 	H 	0.11290 0.31830 0.77190 0.07500
H 	H 	0.34730 0.39010 0.65340 0.08000
H 	H 	0.73170 0.58230 0.63220 -0.00100
H 	H 	0.87040 0.92100 0.49290 0.10500
H 	H 	0.73360 0.74360 0.63540 0.09400
H 	H 	0.62470 0.18190 0.70160 0.02900
H 	H 	0.88310 0.07590 0.50220 -0.00200
H 	H 	0.45900 0.94660 0.90190 0.02400
H 	H 	0.80610 0.85770 0.65010 0.09600
H 	H 	0.81600 0.01700 0.65490 0.00100
H 	H 	0.47140 0.15880 0.74670 0.09900
H 	H 	0.31990 0.93530 0.65680 0.07700
H 	H 	0.20190 0.88250 0.83030 0.07600
H 	H 	0.46120 0.97800 0.81130 0.09000
H 	H 	0.84120 0.95740 0.21550 0.07000
H 	H 	0.08810 0.24250 0.50430 0.08600
H 	H 	0.09620 0.40420 0.50440 -0.00700
H 	H 	0.02770 0.63730 0.26510 0.03700
H 	H 	0.96980 0.89460 0.26340 0.05100
H 	H 	0.49780 0.57740 0.38750 0.02500
H 	H 	0.73340 0.74480 0.36830 0.07000
H 	H 	0.80130 0.14450 0.07840 0.02200
H 	H 	0.80680 0.00120 0.39050 0.03600
H 	H 	0.87740 0.70780 0.40380 0.03700
H 	H 	0.88710 0.68170 0.22810 0.07500
H 	H 	0.65270 0.60990 0.34660 0.08000
H 	H 	0.26830 0.41770 0.36780 -0.00100
H 	H 	0.12960 0.07900 0.50710 0.10500
H 	H 	0.26640 0.25640 0.36460 0.09400
H 	H 	0.37530 0.81810 0.29840 0.02900
H 	H 	0.11690 0.92410 0.49780 -0.00200
H 	H 	0.54100 0.05340 0.09810 0.02400
H 	H 	0.19390 0.14230 0.34990 0.09600
H 	H 	0.18400 0.98300 0.34510 0.00100
H 	H 	0.52860 0.84120 0.25330 0.09900
H 	H 	0.68010 0.06470 0.34320 0.07700
H 	H 	0.79810 0.11750 0.16970 0.07600
H 	H 	0.53880 0.02200 0.18870 0.09000
H 	H 	0.95740 0.84120 0.71550 0.07000
H 	H 	0.24250 0.08810 0.00430 0.08600
H 	H 	0.40420 0.09620 0.00440 -0.00700
H 	H 	0.63730 0.02770 0.76510 0.03700
H 	H 	0.89460 0.96980 0.76340 0.05100
H 	H 	0.57740 0.49780 0.88750 0.02500
H 	H 	0.74480 0.73340 0.86830 0.07000
H 	H 	0.14450 0.80130 0.57840 0.02200
H 	H 	0.00120 0.80680 0.89050 0.03600
H 	H 	0.70780 0.87740 0.90380 0.03700
H 	H 	0.68170 0.88710 0.72810 0.07500
H 	H 	0.60990 0.65270 0.84660 0.08000
H 	H 	0.41770 0.26830 0.86780 -0.00100
H 	H 	0.07900 0.12960 0.00710 0.10400
H 	H 	0.25640 0.26640 0.86460 0.09400
H 	H 	0.81810 0.37530 0.79840 0.02900
H 	H 	0.92410 0.11690 0.99780 -0.00200
H 	H 	0.05340 0.54100 0.59810 0.02400
H 	H 	0.14230 0.19390 0.84990 0.09600
H 	H 	0.98300 0.18400 0.84510 0.00100
H 	H 	0.84120 0.52860 0.75330 0.09900
H 	H 	0.06470 0.68010 0.84320 0.07700
H 	H 	0.11750 0.79810 0.66970 0.07600
H 	H 	0.02200 0.53880 0.68870 0.09000
C 	C 	0.33256 0.03256 0.16185 -0.09400
C 	C 	0.03445 0.16605 0.24925 -0.08400
C 	C 	0.72304 0.87524 0.02400 -0.13500
C 	C 	0.62598 0.87018 0.02426 0.08200
C 	C 	0.36412 0.93932 0.13836 0.31300
C 	C 	0.33995 0.03135 0.21445 0.02800
C 	C 	0.06157 0.10017 0.16786 -0.07800
C 	C 	0.07246 0.08926 0.22047 0.01500
C 	C 	0.31785 0.67885 0.12266 0.40400
C 	C 	0.36712 0.49632 0.13798 0.06400
C 	C 	0.27536 0.20736 0.15268 -0.09400
C 	C 	0.87880 0.25200 0.39923 0.05800
C 	C 	0.98390 0.25430 0.22524 0.03300
C 	C 	0.87490 0.33110 0.47897 0.40100
C 	C 	0.00860 0.18660 0.14448 0.01600
C 	C 	0.29883 0.12143 0.13115 0.02600
C 	C 	0.28170 0.20590 0.20573 0.03300
C 	C 	0.26880 0.39380 0.20232 0.06000
C 	C 	0.76904 0.82524 0.06630 0.06000
C 	C 	0.31439 0.11519 0.23641 -0.09000
C 	C 	0.34822 0.40342 0.16324 -0.12500
C 	C 	0.61797 0.76877 0.10454 0.08900
C 	C 	0.93890 0.85830 0.02650 -0.16200
C 	C 	0.10985 0.02065 0.13614 0.29000
C 	C 	0.87201 0.83281 0.07008 0.08000
C 	C 	0.89590 0.32910 0.42045 -0.13200
C 	C 	0.71461 0.76981 0.10684 -0.13400
C 	C 	0.30282 0.57962 0.15116 -0.13900
C 	C 	0.22460 0.56900 0.19190 0.06900
C 	C 	0.24800 0.29540 0.23174 0.09100
C 	C 	0.03200 0.86600 0.03247 0.10400
C 	C 	0.93390 0.40750 0.38752 0.05800
C 	C 	0.90170 0.81970 0.11930 -0.15000
C 	C 	0.99710 0.82730 0.12191 0.08800
C 	C 	0.95270 0.33990 0.25256 0.08900
C 	C 	0.93430 0.33190 0.31113 0.05400
C 	C 	0.20930 0.47710 0.21820 -0.12000
C 	C 	0.97060 0.26220 0.17282 -0.08800
C 	C 	0.89620 0.25300 0.34448 -0.11700
C 	C 	0.95270 0.40870 0.33331 -0.10800
C 	C 	0.03256 0.33256 0.66185 -0.09400
C 	C 	0.16605 0.03445 0.74925 -0.08400
C 	C 	0.87524 0.72304 0.52400 -0.13500
C 	C 	0.87018 0.62598 0.52426 0.08200
C 	C 	0.93932 0.36412 0.63836 0.31300
C 	C 	0.03135 0.33995 0.71445 0.02800
C 	C 	0.10017 0.06157 0.66786 -0.07800
C 	C 	0.08926 0.07246 0.72047 0.01500
C 	C 	0.67885 0.31785 0.62266 0.40400
C 	C 	0.49632 0.36712 0.63798 0.06400
C 	C 	0.20736 0.27536 0.65268 -0.09400
C 	C 	0.25200 0.87880 0.89923 0.05800
C 	C 	0.25430 0.98390 0.72524 0.03300
C 	C 	0.33110 0.87490 0.97897 0.40100
C 	C 	0.18660 0.00860 0.64448 0.01600
C 	C 	0.12143 0.29883 0.63115 0.02600
C 	C 	0.20590 0.28170 0.70573 0.03400
C 	C 	0.39380 0.26880 0.70232 0.06000
C 	C 	0.82524 0.76904 0.56630 0.06000
C 	C 	0.11519 0.31439 0.73641 -0.09000
C 	C 	0.40342 0.34822 0.66324 -0.12500
C 	C 	0.76877 0.61797 0.60454 0.08900
C 	C 	0.85830 0.93890 0.52650 -0.16200
C 	C 	0.02065 0.10985 0.63614 0.29000
C 	C 	0.83281 0.87201 0.57008 0.08000
C 	C 	0.32910 0.89590 0.92045 -0.13200
C 	C 	0.76981 0.71461 0.60684 -0.13400
C 	C 	0.57962 0.30282 0.65116 -0.13900
C 	C 	0.56900 0.22460 0.69190 0.06900
C 	C 	0.29540 0.24800 0.73174 0.09100
C 	C 	0.86600 0.03200 0.53247 0.10400
C 	C 	0.40750 0.93390 0.88752 0.05800
C 	C 	0.81970 0.90170 0.61930 -0.15000
C 	C 	0.82730 0.99710 0.62191 0.08800
C 	C 	0.33990 0.95270 0.75256 0.08900
C 	C 	0.33190 0.93430 0.81113 0.05400
C 	C 	0.47710 0.20930 0.71820 -0.12000
C 	C 	0.26220 0.97060 0.67282 -0.08800
C 	C 	0.25300 0.89620 0.84448 -0.11700
C 	C 	0.40870 0.95270 0.83331 -0.10800
C 	C 	0.96744 0.66744 0.33815 -0.09400
C 	C 	0.83395 0.96555 0.25075 -0.08400
C 	C 	0.12476 0.27696 0.47600 -0.13500
C 	C 	0.12982 0.37402 0.47574 0.08200
C 	C 	0.06068 0.63588 0.36164 0.31300
C 	C 	0.96865 0.66005 0.28555 0.02800
C 	C 	0.89983 0.93843 0.33214 -0.07800
C 	C 	0.91074 0.92754 0.27953 0.01500
C 	C 	0.32115 0.68215 0.37734 0.40400
C 	C 	0.50368 0.63288 0.36202 0.06400
C 	C 	0.79264 0.72464 0.34732 -0.09400
C 	C 	0.74800 0.12120 0.10077 0.05800
C 	C 	0.74570 0.01610 0.27476 0.03300
C 	C 	0.66890 0.12510 0.02103 0.40100
C 	C 	0.81340 0.99140 0.35552 0.01600
C 	C 	0.87857 0.70117 0.36885 0.02600
C 	C 	0.79410 0.71830 0.29427 0.03400
C 	C 	0.60620 0.73120 0.29768 0.06000
C 	C 	0.17476 0.23096 0.43370 0.06000
C 	C 	0.88481 0.68561 0.26359 -0.09000
C 	C 	0.59658 0.65178 0.33676 -0.12500
C 	C 	0.23123 0.38203 0.39546 0.08900
C 	C 	0.14170 0.06110 0.47350 -0.16200
C 	C 	0.97935 0.89015 0.36386 0.29000
C 	C 	0.16719 0.12799 0.42992 0.08000
C 	C 	0.67090 0.10410 0.07955 -0.13200
C 	C 	0.23019 0.28539 0.39316 -0.13400
C 	C 	0.42038 0.69718 0.34884 -0.13900
C 	C 	0.43100 0.77540 0.30810 0.06900
C 	C 	0.70460 0.75200 0.26826 0.09100
C 	C 	0.13400 0.96800 0.46753 0.10400
C 	C 	0.59250 0.06610 0.11248 0.05800
C 	C 	0.18030 0.09830 0.38070 -0.15000
C 	C 	0.17270 0.00290 0.37809 0.08800
C 	C 	0.66010 0.04730 0.24744 0.08900
C 	C 	0.66810 0.06570 0.18887 0.05400
C 	C 	0.52290 0.79070 0.28180 -0.12000
C 	C 	0.73780 0.02940 0.32718 -0.08800
C 	C 	0.74700 0.10380 0.15552 -0.11700
C 	C 	0.59130 0.04730 0.16669 -0.10800
C 	C 	0.66744 0.96744 0.83815 -0.09400
C 	C 	0.96555 0.83395 0.75075 -0.08400
C 	C 	0.27696 0.12476 0.97600 -0.13500
C 	C 	0.37402 0.12982 0.97574 0.08200
C 	C 	0.63588 0.06068 0.86164 0.31300
C 	C 	0.66005 0.96865 0.78555 0.02800
C 	C 	0.93843 0.89983 0.83214 -0.07800
C 	C 	0.92754 0.91074 0.77953 0.01500
C 	C 	0.68215 0.32115 0.87734 0.40400
C 	C 	0.63288 0.50368 0.86202 0.06400
C 	C 	0.72464 0.79264 0.84732 -0.09400
C 	C 	0.12120 0.74800 0.60077 0.05800
C 	C 	0.01610 0.74570 0.77476 0.03300
C 	C 	0.12510 0.66890 0.52103 0.40100
C 	C 	0.99140 0.81340 0.85552 0.01600
C 	C 	0.70117 0.87857 0.86885 0.02600
C 	C 	0.71830 0.79410 0.79427 0.03300
C 	C 	0.73120 0.60620 0.79768 0.06000
C 	C 	0.23096 0.17476 0.93370 0.06000
C 	C 	0.68561 0.88481 0.76359 -0.09000
C 	C 	0.65178 0.59658 0.83676 -0.12500
C 	C 	0.38203 0.23123 0.89546 0.08900
C 	C 	0.06110 0.14170 0.97350 -0.16200
C 	C 	0.89015 0.97935 0.86386 0.29000
C 	C 	0.12799 0.16719 0.92992 0.08000
C 	C 	0.10410 0.67090 0.57955 -0.13200
C 	C 	0.28539 0.23019 0.89316 -0.13400
C 	C 	0.69718 0.42038 0.84884 -0.13900
C 	C 	0.77540 0.43100 0.80810 0.06900
C 	C 	0.75200 0.70460 0.76826 0.09100
C 	C 	0.96800 0.13400 0.96753 0.10400
C 	C 	0.06610 0.59250 0.61248 0.05800
C 	C 	0.09830 0.18030 0.88070 -0.15000
C 	C 	0.00290 0.17270 0.87809 0.08800
C 	C 	0.04730 0.66010 0.74744 0.08900
C 	C 	0.06570 0.66810 0.68887 0.05400
C 	C 	0.79070 0.52290 0.78180 -0.12000
C 	C 	0.02940 0.73780 0.82718 -0.08800
C 	C 	0.10380 0.74700 0.65552 -0.11700
C 	C 	0.04730 0.59130 0.66669 -0.10800
N 	N 	0.06287 0.85047 0.07845 -0.24400
N 	N 	0.57268 0.81850 0.06442 -0.26800
N 	N 	0.85047 0.06287 0.57845 -0.24400
N 	N 	0.81850 0.57268 0.56442 -0.26800
N 	N 	0.14953 0.93713 0.42155 -0.24400
N 	N 	0.18150 0.42732 0.43558 -0.26800
N 	N 	0.93713 0.14953 0.92155 -0.24400
N 	N 	0.42732 0.18150 0.93558 -0.26800
O 	O 	0.14032 0.93524 0.16005 -0.37700
O 	O 	0.12384 0.03956 0.08620 -0.37400
O 	O 	0.87976 0.24924 0.50946 -0.48300
O 	O 	0.33951 0.93909 0.09201 -0.53300
O 	O 	0.41632 0.86786 0.16012 -0.33600
O 	O 	0.20230 0.28846 0.27673 -0.20000
O 	O 	0.24433 0.74739 0.12488 -0.48400
O 	O 	0.85463 0.41433 0.49321 -0.48400
O 	O 	0.40199 0.68851 0.09695 -0.48900
O 	O 	0.94210 0.42370 0.22636 -0.18900
O 	O 	0.93524 0.14032 0.66005 -0.37700
O 	O 	0.03956 0.12384 0.58620 -0.37400
O 	O 	0.24924 0.87976 0.00946 -0.48300
O 	O 	0.93909 0.33951 0.59201 -0.53300
O 	O 	0.86786 0.41632 0.66012 -0.33600
O 	O 	0.28846 0.20230 0.77673 -0.20000
O 	O 	0.74739 0.24433 0.62488 -0.48400
O 	O 	0.41433 0.85463 0.99321 -0.48400
O 	O 	0.68851 0.40199 0.59695 -0.48900
O 	O 	0.42370 0.94210 0.72636 -0.18900
O 	O 	0.06476 0.85968 0.33995 -0.37700
O 	O 	0.96044 0.87616 0.41380 -0.37400
O 	O 	0.75076 0.12024 0.99054 -0.48300
O 	O 	0.06091 0.66049 0.40799 -0.53300
O 	O 	0.13214 0.58368 0.33988 -0.33600
O 	O 	0.71154 0.79770 0.22327 -0.20000
O 	O 	0.25261 0.75567 0.37512 -0.48400
O 	O 	0.58567 0.14537 0.00679 -0.48400
O 	O 	0.31149 0.59801 0.40305 -0.48900
O 	O 	0.57630 0.05790 0.27364 -0.18900
O 	O 	0.85968 0.06476 0.83995 -0.37700
O 	O 	0.87616 0.96044 0.91380 -0.37400
O 	O 	0.12024 0.75076 0.49054 -0.48300
O 	O 	0.66049 0.06091 0.90799 -0.53300
O 	O 	0.58368 0.13214 0.83988 -0.33600
O 	O 	0.79770 0.71154 0.72327 -0.20000
O 	O 	0.75567 0.25261 0.87512 -0.48400
O 	O 	0.14537 0.58567 0.50679 -0.48400
O 	O 	0.59801 0.31149 0.90305 -0.48900
O 	O 	0.05790 0.57630 0.77364 -0.18900
