data_crystal

_cell_length_a 6.33400
_cell_length_b 20.49000
_cell_length_c 28.02340
_cell_angle_alpha 99.17290
_cell_angle_beta  90.00000
_cell_angle_gamma 90.00000

_symmetry_space_group_name_	'P 1'
_symmetry_space_group_name_H-M	'P 1'

loop_
_symmetry_equiv_pos_as_xyz
  x,y,z

loop_
_atom_site_label
_atom_site_type_symbol
_atom_site_fract_x
_atom_site_fract_y
_atom_site_fract_z
_atom_site_charge
Zn	Zn	0.24880 0.01099 0.02347 1.22900
Zn	Zn	0.74880 0.51099 0.52347 1.23000
Zn	Zn	0.24880 0.48901 0.97653 1.23000
Zn	Zn	0.74880 0.98901 0.47653 1.23000
Zn	Zn	0.75120 0.98901 0.97653 1.22900
Zn	Zn	0.25120 0.48901 0.47653 1.23000
Zn	Zn	0.75120 0.51099 0.02347 1.23000
Zn	Zn	0.25120 0.01099 0.52347 1.23000
H 	H 	0.64650 0.08280 0.86980 0.02300
H 	H 	0.14650 0.58280 0.36980 0.02400
H 	H 	0.64650 0.41720 0.13020 0.02200
H 	H 	0.14650 0.91720 0.63020 0.02300
H 	H 	0.35350 0.91720 0.13020 0.02300
H 	H 	0.85350 0.41720 0.63020 0.02400
H 	H 	0.35350 0.58280 0.86980 0.02200
H 	H 	0.85350 0.08280 0.36980 0.02300
H 	H 	0.61370 0.14950 0.81260 0.07100
H 	H 	0.11370 0.64950 0.31260 0.06800
H 	H 	0.61370 0.35050 0.18740 0.07100
H 	H 	0.11370 0.85050 0.68740 0.06900
H 	H 	0.38630 0.85050 0.18740 0.07100
H 	H 	0.88630 0.35050 0.68740 0.06800
H 	H 	0.38630 0.64950 0.81260 0.07100
H 	H 	0.88630 0.14950 0.31260 0.06900
H 	H 	0.00960 0.19110 0.86050 0.07400
H 	H 	0.50960 0.69110 0.36050 0.07300
H 	H 	0.00960 0.30890 0.13950 0.07400
H 	H 	0.50960 0.80890 0.63950 0.07300
H 	H 	0.99040 0.80890 0.13950 0.07400
H 	H 	0.49040 0.30890 0.63950 0.07300
H 	H 	0.99040 0.69110 0.86050 0.07400
H 	H 	0.49040 0.19110 0.36050 0.07300
H 	H 	0.06880 0.12610 0.92140 0.02200
H 	H 	0.56880 0.62610 0.42140 0.02300
H 	H 	0.06880 0.37390 0.07860 0.02200
H 	H 	0.56880 0.87390 0.57860 0.02200
H 	H 	0.93120 0.87390 0.07860 0.02200
H 	H 	0.43120 0.37390 0.57860 0.02300
H 	H 	0.93120 0.62610 0.92140 0.02200
H 	H 	0.43120 0.12610 0.42140 0.02200
H 	H 	0.50540 0.35850 0.94370 0.00600
H 	H 	0.00540 0.85850 0.44370 0.00800
H 	H 	0.50540 0.14150 0.05630 0.00600
H 	H 	0.00540 0.64150 0.55630 0.00800
H 	H 	0.49460 0.64150 0.05630 0.00600
H 	H 	0.99460 0.14150 0.55630 0.00800
H 	H 	0.49460 0.85850 0.94370 0.00600
H 	H 	0.99460 0.35850 0.44370 0.00800
H 	H 	0.32410 0.30100 0.87970 0.08600
H 	H 	0.82410 0.80100 0.37970 0.08400
H 	H 	0.32410 0.19900 0.12030 0.08600
H 	H 	0.82410 0.69900 0.62030 0.08300
H 	H 	0.67590 0.69900 0.12030 0.08600
H 	H 	0.17590 0.19900 0.62030 0.08400
H 	H 	0.67590 0.80100 0.87970 0.08600
H 	H 	0.17590 0.30100 0.37970 0.08300
H 	H 	0.06360 0.15440 0.75420 0.05400
H 	H 	0.56360 0.65440 0.25420 0.05400
H 	H 	0.06360 0.34560 0.24580 0.05400
H 	H 	0.56360 0.84560 0.74580 0.05300
H 	H 	0.93640 0.84560 0.24580 0.05400
H 	H 	0.43640 0.34560 0.74580 0.05400
H 	H 	0.93640 0.65440 0.75420 0.05400
H 	H 	0.43640 0.15440 0.25420 0.05300
H 	H 	0.99140 0.37630 0.84910 0.02100
H 	H 	0.49140 0.87630 0.34910 0.02200
H 	H 	0.99140 0.12370 0.15090 0.02100
H 	H 	0.49140 0.62370 0.65090 0.02200
H 	H 	0.00860 0.62370 0.15090 0.02100
H 	H 	0.50860 0.12370 0.65090 0.02200
H 	H 	0.00860 0.87630 0.84910 0.02100
H 	H 	0.50860 0.37630 0.34910 0.02200
H 	H 	0.79210 0.32150 0.78730 0.07800
H 	H 	0.29210 0.82150 0.28730 0.07700
H 	H 	0.79210 0.17850 0.21270 0.07800
H 	H 	0.29210 0.67850 0.71270 0.07700
H 	H 	0.20790 0.67850 0.21270 0.07800
H 	H 	0.70790 0.17850 0.71270 0.07700
H 	H 	0.20790 0.82150 0.78730 0.07800
H 	H 	0.70790 0.32150 0.28730 0.07700
C 	C 	0.51900 0.10690 0.86840 0.06200
C 	C 	0.01900 0.60690 0.36840 0.05600
C 	C 	0.51900 0.39310 0.13160 0.06200
C 	C 	0.01900 0.89310 0.63160 0.05800
C 	C 	0.48100 0.89310 0.13160 0.06200
C 	C 	0.98100 0.39310 0.63160 0.05600
C 	C 	0.48100 0.60690 0.86840 0.06200
C 	C 	0.98100 0.10690 0.36840 0.05800
C 	C 	0.49900 0.14530 0.83380 -0.11800
C 	C 	0.99900 0.64530 0.33380 -0.11200
C 	C 	0.49900 0.35470 0.16620 -0.11800
C 	C 	0.99900 0.85470 0.66620 -0.11500
C 	C 	0.50100 0.85470 0.16620 -0.11800
C 	C 	0.00100 0.35470 0.66620 -0.11200
C 	C 	0.50100 0.64530 0.83380 -0.11800
C 	C 	0.00100 0.14530 0.33380 -0.11500
C 	C 	0.14300 0.17050 0.86230 -0.12100
C 	C 	0.64300 0.67050 0.36230 -0.11900
C 	C 	0.14300 0.32950 0.13770 -0.12100
C 	C 	0.64300 0.82950 0.63770 -0.12000
C 	C 	0.85700 0.82950 0.13770 -0.12100
C 	C 	0.35700 0.32950 0.63770 -0.11900
C 	C 	0.85700 0.67050 0.86230 -0.12100
C 	C 	0.35700 0.17050 0.36230 -0.12000
C 	C 	0.17800 0.13100 0.89900 0.06200
C 	C 	0.67800 0.63100 0.39900 0.06000
C 	C 	0.17800 0.36900 0.10100 0.06200
C 	C 	0.67800 0.86900 0.60100 0.06100
C 	C 	0.82200 0.86900 0.10100 0.06200
C 	C 	0.32200 0.36900 0.60100 0.06000
C 	C 	0.82200 0.63100 0.89900 0.06200
C 	C 	0.32200 0.13100 0.39900 0.06100
C 	C 	0.27200 0.21690 0.79110 -0.01300
C 	C 	0.77200 0.71690 0.29110 -0.01300
C 	C 	0.27200 0.28310 0.20890 -0.01300
C 	C 	0.77200 0.78310 0.70890 -0.01400
C 	C 	0.72800 0.78310 0.20890 -0.01300
C 	C 	0.22800 0.28310 0.70890 -0.01300
C 	C 	0.72800 0.71690 0.79110 -0.01300
C 	C 	0.22800 0.21690 0.29110 -0.01400
C 	C 	0.56400 0.35060 0.91210 0.07500
C 	C 	0.06400 0.85060 0.41210 0.07000
C 	C 	0.56400 0.14940 0.08790 0.07600
C 	C 	0.06400 0.64940 0.58790 0.06900
C 	C 	0.43600 0.64940 0.08790 0.07500
C 	C 	0.93600 0.14940 0.58790 0.07000
C 	C 	0.43600 0.85060 0.91210 0.07600
C 	C 	0.93600 0.35060 0.41210 0.06900
C 	C 	0.40100 0.06000 0.94050 0.38300
C 	C 	0.90100 0.56000 0.44050 0.38200
C 	C 	0.40100 0.44000 0.05950 0.38300
C 	C 	0.90100 0.94000 0.55950 0.38200
C 	C 	0.59900 0.94000 0.05950 0.38300
C 	C 	0.09900 0.44000 0.55950 0.38200
C 	C 	0.59900 0.56000 0.94050 0.38300
C 	C 	0.09900 0.06000 0.44050 0.38200
C 	C 	0.36300 0.10080 0.90210 -0.13700
C 	C 	0.86300 0.60080 0.40210 -0.13400
C 	C 	0.36300 0.39920 0.09790 -0.13800
C 	C 	0.86300 0.89920 0.59790 -0.13600
C 	C 	0.63700 0.89920 0.09790 -0.13700
C 	C 	0.13700 0.39920 0.59790 -0.13400
C 	C 	0.63700 0.60080 0.90210 -0.13800
C 	C 	0.13700 0.10080 0.40210 -0.13600
C 	C 	0.88700 0.41690 0.93960 0.39700
C 	C 	0.38700 0.91690 0.43960 0.39700
C 	C 	0.88700 0.08310 0.06040 0.39800
C 	C 	0.38700 0.58310 0.56040 0.39600
C 	C 	0.11300 0.58310 0.06040 0.39700
C 	C 	0.61300 0.08310 0.56040 0.39700
C 	C 	0.11300 0.91690 0.93960 0.39800
C 	C 	0.61300 0.41690 0.43960 0.39600
C 	C 	0.52700 0.30700 0.82920 0.08500
C 	C 	0.02700 0.80700 0.32920 0.08000
C 	C 	0.52700 0.19300 0.17080 0.08500
C 	C 	0.02700 0.69300 0.67080 0.07800
C 	C 	0.47300 0.69300 0.17080 0.08500
C 	C 	0.97300 0.19300 0.67080 0.08000
C 	C 	0.47300 0.80700 0.82920 0.08500
C 	C 	0.97300 0.30700 0.32920 0.07800
C 	C 	0.46000 0.31780 0.87370 -0.14400
C 	C 	0.96000 0.81780 0.37370 -0.13800
C 	C 	0.46000 0.18220 0.12630 -0.14500
C 	C 	0.96000 0.68220 0.62630 -0.13600
C 	C 	0.54000 0.68220 0.12630 -0.14400
C 	C 	0.04000 0.18220 0.62630 -0.13800
C 	C 	0.54000 0.81780 0.87370 -0.14500
C 	C 	0.04000 0.31780 0.37370 -0.13600
C 	C 	0.76800 0.37250 0.90160 -0.14700
C 	C 	0.26800 0.87250 0.40160 -0.14500
C 	C 	0.76800 0.12750 0.09840 -0.14800
C 	C 	0.26800 0.62750 0.59840 -0.14400
C 	C 	0.23200 0.62750 0.09840 -0.14700
C 	C 	0.73200 0.12750 0.59840 -0.14500
C 	C 	0.23200 0.87250 0.90160 -0.14800
C 	C 	0.73200 0.37250 0.40160 -0.14400
C 	C 	0.30100 0.18020 0.82890 0.06100
C 	C 	0.80100 0.68020 0.32890 0.05900
C 	C 	0.30100 0.31980 0.17110 0.06100
C 	C 	0.80100 0.81980 0.67110 0.06000
C 	C 	0.69900 0.81980 0.17110 0.06100
C 	C 	0.19900 0.31980 0.67110 0.05900
C 	C 	0.69900 0.68020 0.82890 0.06100
C 	C 	0.19900 0.18020 0.32890 0.06000
C 	C 	0.13900 0.19410 0.75320 -0.06000
C 	C 	0.63900 0.69410 0.25320 -0.05900
C 	C 	0.13900 0.30590 0.24680 -0.06000
C 	C 	0.63900 0.80590 0.74680 -0.05800
C 	C 	0.86100 0.80590 0.24680 -0.06000
C 	C 	0.36100 0.30590 0.74680 -0.05900
C 	C 	0.86100 0.69410 0.75320 -0.06000
C 	C 	0.36100 0.19410 0.25320 -0.05800
C 	C 	0.39000 0.27340 0.78660 -0.01700
C 	C 	0.89000 0.77340 0.28660 -0.01500
C 	C 	0.39000 0.22660 0.21340 -0.01700
C 	C 	0.89000 0.72660 0.71340 -0.01400
C 	C 	0.61000 0.72660 0.21340 -0.01700
C 	C 	0.11000 0.22660 0.71340 -0.01500
C 	C 	0.61000 0.77340 0.78660 -0.01700
C 	C 	0.11000 0.27340 0.28660 -0.01400
C 	C 	0.85300 0.36130 0.85500 0.07600
C 	C 	0.35300 0.86130 0.35500 0.07300
C 	C 	0.85300 0.13870 0.14500 0.07600
C 	C 	0.35300 0.63870 0.64500 0.07200
C 	C 	0.14700 0.63870 0.14500 0.07600
C 	C 	0.64700 0.13870 0.64500 0.07300
C 	C 	0.14700 0.86130 0.85500 0.07600
C 	C 	0.64700 0.36130 0.35500 0.07200
C 	C 	0.73800 0.32950 0.81930 -0.13900
C 	C 	0.23800 0.82950 0.31930 -0.13500
C 	C 	0.73800 0.17050 0.18070 -0.13900
C 	C 	0.23800 0.67050 0.68070 -0.13400
C 	C 	0.26200 0.67050 0.18070 -0.13900
C 	C 	0.76200 0.17050 0.68070 -0.13500
C 	C 	0.26200 0.82950 0.81930 -0.13900
C 	C 	0.76200 0.32950 0.31930 -0.13400
O 	O 	0.28170 0.07060 0.97800 -0.49200
O 	O 	0.78170 0.57060 0.47800 -0.49200
O 	O 	0.28170 0.42940 0.02200 -0.49300
O 	O 	0.78170 0.92940 0.52200 -0.49200
O 	O 	0.71830 0.92940 0.02200 -0.49200
O 	O 	0.21830 0.42940 0.52200 -0.49200
O 	O 	0.71830 0.57060 0.97800 -0.49300
O 	O 	0.21830 0.07060 0.47800 -0.49200
O 	O 	0.80330 0.42790 0.98170 -0.50200
O 	O 	0.30330 0.92790 0.48170 -0.50200
O 	O 	0.80330 0.07210 0.01830 -0.50300
O 	O 	0.30330 0.57210 0.51830 -0.50200
O 	O 	0.19670 0.57210 0.01830 -0.50200
O 	O 	0.69670 0.07210 0.51830 -0.50200
O 	O 	0.19670 0.92790 0.98170 -0.50300
O 	O 	0.69670 0.42790 0.48170 -0.50200
O 	O 	0.54890 0.01700 0.93330 -0.48700
O 	O 	0.04890 0.51700 0.43330 -0.48900
O 	O 	0.54890 0.48300 0.06670 -0.48900
O 	O 	0.04890 0.98300 0.56670 -0.48800
O 	O 	0.45110 0.98300 0.06670 -0.48700
O 	O 	0.95110 0.48300 0.56670 -0.48900
O 	O 	0.45110 0.51700 0.93330 -0.48900
O 	O 	0.95110 0.01700 0.43330 -0.48800
O 	O 	0.05680 0.44400 0.92970 -0.48500
O 	O 	0.55680 0.94400 0.42970 -0.48500
O 	O 	0.05680 0.05600 0.07030 -0.48600
O 	O 	0.55680 0.55600 0.57030 -0.48500
O 	O 	0.94320 0.55600 0.07030 -0.48500
O 	O 	0.44320 0.05600 0.57030 -0.48500
O 	O 	0.94320 0.94400 0.92970 -0.48600
O 	O 	0.44320 0.44400 0.42970 -0.48500
