data_crystal

_cell_length_a 13.28280
_cell_length_b 13.28280
_cell_length_c 26.64910
_cell_angle_alpha 90.00000
_cell_angle_beta  90.00000
_cell_angle_gamma 90.00000

_symmetry_space_group_name_	'P 1'
_symmetry_space_group_name_H-M	'P 1'

loop_
_symmetry_equiv_pos_as_xyz
  x,y,z

loop_
_atom_site_label
_atom_site_type_symbol
_atom_site_fract_x
_atom_site_fract_y
_atom_site_fract_z
_atom_site_charge
Zn	Zn	0.32896 0.77722 0.30485 1.17600
Zn	Zn	0.67104 0.22278 0.30485 1.17600
Zn	Zn	0.22278 0.32896 0.30485 1.17600
Zn	Zn	0.77722 0.67104 0.30485 1.17600
Zn	Zn	0.82896 0.27722 0.80485 1.17600
Zn	Zn	0.17104 0.72278 0.80485 1.17600
Zn	Zn	0.72278 0.82896 0.80485 1.17600
Zn	Zn	0.27722 0.17104 0.80485 1.17600
Zn	Zn	0.67104 0.22278 0.69514 1.17600
Zn	Zn	0.32896 0.77722 0.69514 1.17600
Zn	Zn	0.77722 0.67104 0.69514 1.17600
Zn	Zn	0.22278 0.32896 0.69514 1.17600
Zn	Zn	0.17104 0.72278 0.19515 1.17600
Zn	Zn	0.82896 0.27722 0.19515 1.17600
Zn	Zn	0.27722 0.17104 0.19515 1.17600
Zn	Zn	0.72278 0.82896 0.19515 1.17600
H 	H 	0.22590 0.98980 0.42480 0.01900
H 	H 	0.77410 0.01020 0.42480 0.01900
H 	H 	0.01020 0.22590 0.42480 0.01900
H 	H 	0.98980 0.77410 0.42480 0.01900
H 	H 	0.72590 0.48980 0.92480 0.01800
H 	H 	0.27410 0.51020 0.92480 0.01800
H 	H 	0.51020 0.72590 0.92480 0.01800
H 	H 	0.48980 0.27410 0.92480 0.01800
H 	H 	0.77410 0.01020 0.57520 0.01900
H 	H 	0.22590 0.98980 0.57520 0.01900
H 	H 	0.98980 0.77410 0.57520 0.01900
H 	H 	0.01020 0.22590 0.57520 0.01900
H 	H 	0.27410 0.51020 0.07520 0.01900
H 	H 	0.72590 0.48980 0.07520 0.01900
H 	H 	0.48980 0.27410 0.07520 0.01900
H 	H 	0.51020 0.72590 0.07520 0.01900
H 	H 	0.16430 0.05630 0.50000 0.07700
H 	H 	0.83570 0.94370 0.50000 0.07700
H 	H 	0.94370 0.16430 0.50000 0.07700
H 	H 	0.05630 0.83570 0.50000 0.07700
H 	H 	0.66430 0.55630 -0.00000 0.07800
H 	H 	0.33570 0.44370 -0.00000 0.07800
H 	H 	0.44370 0.66430 -0.00000 0.07800
H 	H 	0.55630 0.33570 -0.00000 0.07800
H 	H 	0.33860 0.75560 0.50000 0.04000
H 	H 	0.66140 0.24440 0.50000 0.04000
H 	H 	0.24440 0.33860 0.50000 0.04000
H 	H 	0.75560 0.66140 0.50000 0.04000
H 	H 	0.83860 0.25560 -0.00000 0.04000
H 	H 	0.16140 0.74440 -0.00000 0.04000
H 	H 	0.74440 0.83860 -0.00000 0.04000
H 	H 	0.25560 0.16140 -0.00000 0.04000
H 	H 	0.50640 0.83000 0.17500 0.14300
H 	H 	0.49360 0.17000 0.17500 0.14300
H 	H 	0.17000 0.50640 0.17500 0.14300
H 	H 	0.83000 0.49360 0.17500 0.14300
H 	H 	0.00640 0.33000 0.67500 0.14300
H 	H 	0.99360 0.67000 0.67500 0.14300
H 	H 	0.67000 0.00640 0.67500 0.14300
H 	H 	0.33000 0.99360 0.67500 0.14300
H 	H 	0.49360 0.17000 0.82500 0.14300
H 	H 	0.50640 0.83000 0.82500 0.14300
H 	H 	0.83000 0.49360 0.82500 0.14300
H 	H 	0.17000 0.50640 0.82500 0.14300
H 	H 	0.99360 0.67000 0.32500 0.14300
H 	H 	0.00640 0.33000 0.32500 0.14300
H 	H 	0.33000 0.99360 0.32500 0.14300
H 	H 	0.67000 0.00640 0.32500 0.14300
H 	H 	0.41000 0.82680 0.20350 0.11500
H 	H 	0.59000 0.17320 0.20350 0.11500
H 	H 	0.17320 0.41000 0.20350 0.11500
H 	H 	0.82680 0.59000 0.20350 0.11500
H 	H 	0.91000 0.32680 0.70350 0.11500
H 	H 	0.09000 0.67320 0.70350 0.11500
H 	H 	0.67320 0.91000 0.70350 0.11500
H 	H 	0.32680 0.09000 0.70350 0.11500
H 	H 	0.59000 0.17320 0.79650 0.11500
H 	H 	0.41000 0.82680 0.79650 0.11500
H 	H 	0.82680 0.59000 0.79650 0.11500
H 	H 	0.17320 0.41000 0.79650 0.11500
H 	H 	0.09000 0.67320 0.29650 0.11500
H 	H 	0.91000 0.32680 0.29650 0.11500
H 	H 	0.32680 0.09000 0.29650 0.11500
H 	H 	0.67320 0.91000 0.29650 0.11500
H 	H 	0.59440 0.68810 0.38280 0.17100
H 	H 	0.40560 0.31190 0.38280 0.17100
H 	H 	0.31190 0.59440 0.38280 0.17100
H 	H 	0.68810 0.40560 0.38280 0.17100
H 	H 	0.09440 0.18810 0.88280 0.17100
H 	H 	0.90560 0.81190 0.88280 0.17100
H 	H 	0.81190 0.09440 0.88280 0.17100
H 	H 	0.18810 0.90560 0.88280 0.17100
H 	H 	0.40560 0.31190 0.61720 0.17100
H 	H 	0.59440 0.68810 0.61720 0.17100
H 	H 	0.68810 0.40560 0.61720 0.17100
H 	H 	0.31190 0.59440 0.61720 0.17100
H 	H 	0.90560 0.81190 0.11720 0.17100
H 	H 	0.09440 0.18810 0.11720 0.17100
H 	H 	0.18810 0.90560 0.11720 0.17100
H 	H 	0.81190 0.09440 0.11720 0.17100
H 	H 	0.48400 0.70540 0.37790 0.16000
H 	H 	0.51600 0.29460 0.37790 0.16000
H 	H 	0.29460 0.48400 0.37790 0.16000
H 	H 	0.70540 0.51600 0.37790 0.16000
H 	H 	0.98400 0.20540 0.87790 0.16000
H 	H 	0.01600 0.79460 0.87790 0.16000
H 	H 	0.79460 0.98400 0.87790 0.16000
H 	H 	0.20540 0.01600 0.87790 0.16000
H 	H 	0.51600 0.29460 0.62210 0.16000
H 	H 	0.48400 0.70540 0.62210 0.16000
H 	H 	0.70540 0.51600 0.62210 0.16000
H 	H 	0.29460 0.48400 0.62210 0.16000
H 	H 	0.01600 0.79460 0.12210 0.16000
H 	H 	0.98400 0.20540 0.12210 0.16000
H 	H 	0.20540 0.01600 0.12210 0.16000
H 	H 	0.79460 0.98400 0.12210 0.16000
C 	C 	0.31220 0.81070 0.40695 0.34900
C 	C 	0.68780 0.18930 0.40695 0.34900
C 	C 	0.18930 0.31220 0.40695 0.34900
C 	C 	0.81070 0.68780 0.40695 0.34900
C 	C 	0.81220 0.31070 0.90695 0.34900
C 	C 	0.18780 0.68930 0.90695 0.34900
C 	C 	0.68930 0.81220 0.90695 0.34900
C 	C 	0.31070 0.18780 0.90695 0.34900
C 	C 	0.68780 0.18930 0.59305 0.34900
C 	C 	0.31220 0.81070 0.59305 0.34900
C 	C 	0.81070 0.68780 0.59305 0.34900
C 	C 	0.18930 0.31220 0.59305 0.34900
C 	C 	0.18780 0.68930 0.09305 0.34900
C 	C 	0.81220 0.31070 0.09305 0.34900
C 	C 	0.31070 0.18780 0.09305 0.34900
C 	C 	0.68930 0.81220 0.09305 0.34900
C 	C 	0.28140 0.86250 0.45472 -0.12600
C 	C 	0.71860 0.13750 0.45472 -0.12600
C 	C 	0.13750 0.28140 0.45472 -0.12600
C 	C 	0.86250 0.71860 0.45472 -0.12600
C 	C 	0.78140 0.36250 0.95472 -0.12300
C 	C 	0.21860 0.63750 0.95472 -0.12300
C 	C 	0.63750 0.78140 0.95472 -0.12300
C 	C 	0.36250 0.21860 0.95472 -0.12300
C 	C 	0.71860 0.13750 0.54528 -0.12600
C 	C 	0.28140 0.86250 0.54528 -0.12600
C 	C 	0.86250 0.71860 0.54528 -0.12600
C 	C 	0.13750 0.28140 0.54528 -0.12600
C 	C 	0.21860 0.63750 0.04528 -0.12600
C 	C 	0.78140 0.36250 0.04528 -0.12600
C 	C 	0.36250 0.21860 0.04528 -0.12600
C 	C 	0.63750 0.78140 0.04528 -0.12600
C 	C 	0.23600 0.95580 0.45480 0.04800
C 	C 	0.76400 0.04420 0.45480 0.04800
C 	C 	0.04420 0.23600 0.45480 0.04800
C 	C 	0.95580 0.76400 0.45480 0.04800
C 	C 	0.73600 0.45580 0.95480 0.05300
C 	C 	0.26400 0.54420 0.95480 0.05300
C 	C 	0.54420 0.73600 0.95480 0.05300
C 	C 	0.45580 0.26400 0.95480 0.05300
C 	C 	0.76400 0.04420 0.54520 0.04800
C 	C 	0.23600 0.95580 0.54520 0.04800
C 	C 	0.95580 0.76400 0.54520 0.04800
C 	C 	0.04420 0.23600 0.54520 0.04800
C 	C 	0.26400 0.54420 0.04520 0.05000
C 	C 	0.73600 0.45580 0.04520 0.05000
C 	C 	0.45580 0.26400 0.04520 0.05000
C 	C 	0.54420 0.73600 0.04520 0.05000
C 	C 	0.20490 0.99930 0.50000 -0.12400
C 	C 	0.79510 0.00070 0.50000 -0.12400
C 	C 	0.00070 0.20490 0.50000 -0.12400
C 	C 	0.99930 0.79510 0.50000 -0.12400
C 	C 	0.70490 0.49930 -0.00000 -0.13000
C 	C 	0.29510 0.50070 -0.00000 -0.13000
C 	C 	0.50070 0.70490 -0.00000 -0.13000
C 	C 	0.49930 0.29510 -0.00000 -0.13000
C 	C 	0.30560 0.81730 0.50000 0.05300
C 	C 	0.69440 0.18270 0.50000 0.05300
C 	C 	0.18270 0.30560 0.50000 0.05300
C 	C 	0.81730 0.69440 0.50000 0.05300
C 	C 	0.80560 0.31730 -0.00000 0.04900
C 	C 	0.19440 0.68270 -0.00000 0.04900
C 	C 	0.68270 0.80560 -0.00000 0.04900
C 	C 	0.31730 0.19440 -0.00000 0.04900
C 	C 	0.52370 0.78670 0.24312 0.17300
C 	C 	0.47630 0.21330 0.24312 0.17300
C 	C 	0.21330 0.52370 0.24312 0.17300
C 	C 	0.78670 0.47630 0.24312 0.17300
C 	C 	0.02370 0.28670 0.74312 0.17200
C 	C 	0.97630 0.71330 0.74312 0.17200
C 	C 	0.71330 0.02370 0.74312 0.17200
C 	C 	0.28670 0.97630 0.74312 0.17200
C 	C 	0.47630 0.21330 0.75688 0.17300
C 	C 	0.52370 0.78670 0.75688 0.17300
C 	C 	0.78670 0.47630 0.75688 0.17300
C 	C 	0.21330 0.52370 0.75688 0.17300
C 	C 	0.97630 0.71330 0.25688 0.17200
C 	C 	0.02370 0.28670 0.25688 0.17200
C 	C 	0.28670 0.97630 0.25688 0.17200
C 	C 	0.71330 0.02370 0.25688 0.17200
C 	C 	0.55620 0.73360 0.31723 0.19300
C 	C 	0.44380 0.26640 0.31723 0.19300
C 	C 	0.26640 0.55620 0.31723 0.19300
C 	C 	0.73360 0.44380 0.31723 0.19300
C 	C 	0.05620 0.23360 0.81723 0.19300
C 	C 	0.94380 0.76640 0.81723 0.19300
C 	C 	0.76640 0.05620 0.81723 0.19300
C 	C 	0.23360 0.94380 0.81723 0.19300
C 	C 	0.44380 0.26640 0.68277 0.19300
C 	C 	0.55620 0.73360 0.68277 0.19300
C 	C 	0.73360 0.44380 0.68277 0.19300
C 	C 	0.26640 0.55620 0.68277 0.19300
C 	C 	0.94380 0.76640 0.18277 0.19300
C 	C 	0.05620 0.23360 0.18277 0.19300
C 	C 	0.23360 0.94380 0.18277 0.19300
C 	C 	0.76640 0.05620 0.18277 0.19300
N 	N 	0.62170 0.77160 0.24477 -0.28500
N 	N 	0.37830 0.22840 0.24477 -0.28500
N 	N 	0.22840 0.62170 0.24477 -0.28500
N 	N 	0.77160 0.37830 0.24477 -0.28500
N 	N 	0.12170 0.27160 0.74477 -0.28500
N 	N 	0.87830 0.72840 0.74477 -0.28500
N 	N 	0.72840 0.12170 0.74477 -0.28500
N 	N 	0.27160 0.87830 0.74477 -0.28500
N 	N 	0.37830 0.22840 0.75523 -0.28500
N 	N 	0.62170 0.77160 0.75523 -0.28500
N 	N 	0.77160 0.37830 0.75523 -0.28500
N 	N 	0.22840 0.62170 0.75523 -0.28500
N 	N 	0.87830 0.72840 0.25523 -0.28500
N 	N 	0.12170 0.27160 0.25523 -0.28500
N 	N 	0.27160 0.87830 0.25523 -0.28500
N 	N 	0.72840 0.12170 0.25523 -0.28500
N 	N 	0.64300 0.73690 0.29369 -0.29200
N 	N 	0.35700 0.26310 0.29369 -0.29200
N 	N 	0.26310 0.64300 0.29369 -0.29200
N 	N 	0.73690 0.35700 0.29369 -0.29200
N 	N 	0.14300 0.23690 0.79369 -0.29200
N 	N 	0.85700 0.76310 0.79369 -0.29200
N 	N 	0.76310 0.14300 0.79369 -0.29200
N 	N 	0.23690 0.85700 0.79369 -0.29200
N 	N 	0.35700 0.26310 0.70631 -0.29200
N 	N 	0.64300 0.73690 0.70631 -0.29200
N 	N 	0.73690 0.35700 0.70631 -0.29200
N 	N 	0.26310 0.64300 0.70631 -0.29200
N 	N 	0.85700 0.76310 0.20631 -0.29200
N 	N 	0.14300 0.23690 0.20631 -0.29200
N 	N 	0.23690 0.85700 0.20631 -0.29200
N 	N 	0.76310 0.14300 0.20631 -0.29200
N 	N 	0.47810 0.76620 0.28804 -0.32200
N 	N 	0.52190 0.23380 0.28804 -0.32200
N 	N 	0.23380 0.47810 0.28804 -0.32200
N 	N 	0.76620 0.52190 0.28804 -0.32200
N 	N 	0.97810 0.26620 0.78804 -0.32200
N 	N 	0.02190 0.73380 0.78804 -0.32200
N 	N 	0.73380 0.97810 0.78804 -0.32200
N 	N 	0.26620 0.02190 0.78804 -0.32200
N 	N 	0.52190 0.23380 0.71196 -0.32200
N 	N 	0.47810 0.76620 0.71196 -0.32200
N 	N 	0.76620 0.52190 0.71196 -0.32200
N 	N 	0.23380 0.47810 0.71196 -0.32200
N 	N 	0.02190 0.73380 0.21196 -0.32200
N 	N 	0.97810 0.26620 0.21196 -0.32200
N 	N 	0.26620 0.02190 0.21196 -0.32200
N 	N 	0.73380 0.97810 0.21196 -0.32200
N 	N 	0.47420 0.81830 0.20238 -0.33900
N 	N 	0.52580 0.18170 0.20238 -0.33900
N 	N 	0.18170 0.47420 0.20238 -0.33900
N 	N 	0.81830 0.52580 0.20238 -0.33900
N 	N 	0.97420 0.31830 0.70238 -0.33900
N 	N 	0.02580 0.68170 0.70238 -0.33900
N 	N 	0.68170 0.97420 0.70238 -0.33900
N 	N 	0.31830 0.02580 0.70238 -0.33900
N 	N 	0.52580 0.18170 0.79762 -0.33900
N 	N 	0.47420 0.81830 0.79762 -0.33900
N 	N 	0.81830 0.52580 0.79762 -0.33900
N 	N 	0.18170 0.47420 0.79762 -0.33900
N 	N 	0.02580 0.68170 0.29762 -0.33900
N 	N 	0.97420 0.31830 0.29762 -0.33900
N 	N 	0.31830 0.02580 0.29762 -0.33900
N 	N 	0.68170 0.97420 0.29762 -0.33900
N 	N 	0.54330 0.70570 0.36500 -0.36100
N 	N 	0.45670 0.29430 0.36500 -0.36100
N 	N 	0.29430 0.54330 0.36500 -0.36100
N 	N 	0.70570 0.45670 0.36500 -0.36100
N 	N 	0.04330 0.20570 0.86500 -0.36100
N 	N 	0.95670 0.79430 0.86500 -0.36100
N 	N 	0.79430 0.04330 0.86500 -0.36100
N 	N 	0.20570 0.95670 0.86500 -0.36100
N 	N 	0.45670 0.29430 0.63500 -0.36100
N 	N 	0.54330 0.70570 0.63500 -0.36100
N 	N 	0.70570 0.45670 0.63500 -0.36100
N 	N 	0.29430 0.54330 0.63500 -0.36100
N 	N 	0.95670 0.79430 0.13500 -0.36100
N 	N 	0.04330 0.20570 0.13500 -0.36100
N 	N 	0.20570 0.95670 0.13500 -0.36100
N 	N 	0.79430 0.04330 0.13500 -0.36100
O 	O 	0.29600 0.85630 0.36546 -0.48700
O 	O 	0.70400 0.14370 0.36546 -0.48700
O 	O 	0.14370 0.29600 0.36546 -0.48700
O 	O 	0.85630 0.70400 0.36546 -0.48700
O 	O 	0.79600 0.35630 0.86546 -0.48600
O 	O 	0.20400 0.64370 0.86546 -0.48600
O 	O 	0.64370 0.79600 0.86546 -0.48600
O 	O 	0.35630 0.20400 0.86546 -0.48600
O 	O 	0.70400 0.14370 0.63454 -0.48700
O 	O 	0.29600 0.85630 0.63454 -0.48700
O 	O 	0.85630 0.70400 0.63454 -0.48700
O 	O 	0.14370 0.29600 0.63454 -0.48700
O 	O 	0.20400 0.64370 0.13454 -0.48700
O 	O 	0.79600 0.35630 0.13454 -0.48700
O 	O 	0.35630 0.20400 0.13454 -0.48700
O 	O 	0.64370 0.79600 0.13454 -0.48700
O 	O 	0.34980 0.72620 0.40918 -0.35800
O 	O 	0.65020 0.27380 0.40918 -0.35800
O 	O 	0.27380 0.34980 0.40918 -0.35800
O 	O 	0.72620 0.65020 0.40918 -0.35800
O 	O 	0.84980 0.22620 0.90918 -0.35700
O 	O 	0.15020 0.77380 0.90918 -0.35700
O 	O 	0.77380 0.84980 0.90918 -0.35700
O 	O 	0.22620 0.15020 0.90918 -0.35700
O 	O 	0.65020 0.27380 0.59082 -0.35800
O 	O 	0.34980 0.72620 0.59082 -0.35800
O 	O 	0.72620 0.65020 0.59082 -0.35800
O 	O 	0.27380 0.34980 0.59082 -0.35800
O 	O 	0.15020 0.77380 0.09082 -0.35800
O 	O 	0.84980 0.22620 0.09082 -0.35800
O 	O 	0.22620 0.15020 0.09082 -0.35800
O 	O 	0.77380 0.84980 0.09082 -0.35800
