data_crystal

_cell_length_a 9.30460
_cell_length_b 13.70290
_cell_length_c 19.91110
_cell_angle_alpha 86.57050
_cell_angle_beta  79.85170
_cell_angle_gamma 70.15290

_symmetry_space_group_name_	'P 1'
_symmetry_space_group_name_H-M	'P 1'

loop_
_symmetry_equiv_pos_as_xyz
  x,y,z

loop_
_atom_site_label
_atom_site_type_symbol
_atom_site_fract_x
_atom_site_fract_y
_atom_site_fract_z
_atom_site_charge
Zn	Zn	0.59666 0.74166 0.01193 1.20900
Zn	Zn	0.16168 0.74166 0.48807 1.21000
Zn	Zn	0.40334 0.25834 0.98807 1.20900
Zn	Zn	0.83832 0.25834 0.51193 1.21000
H 	H 	0.38710 0.63200 0.06670 -0.04000
H 	H 	0.37690 0.48620 0.12590 0.15800
H 	H 	0.82770 0.41140 0.13130 0.15800
H 	H 	0.82480 0.55720 0.07090 -0.04200
H 	H 	0.76270 0.31480 0.22320 0.04100
H 	H 	0.78580 0.23760 0.16340 0.04500
H 	H 	0.51490 0.11740 0.24270 0.03600
H 	H 	0.52630 0.18720 0.17760 0.04100
H 	H 	0.89160 0.88520 0.14540 0.15200
H 	H 	0.85570 0.76400 0.08300 -0.05000
H 	H 	0.43770 0.94760 0.07040 -0.03500
H 	H 	0.47080 0.07420 0.12630 0.15100
H 	H 	0.78740 0.82500 0.80670 0.04500
H 	H 	0.95120 0.51440 0.80670 0.04900
H 	H 	0.01950 0.85440 0.94100 0.04600
H 	H 	0.20340 0.99180 0.05420 0.05200
H 	H 	0.48090 0.63200 0.43330 -0.03900
H 	H 	0.63690 0.48620 0.37410 0.15800
H 	H 	0.26090 0.41140 0.36870 0.15800
H 	H 	0.11800 0.55720 0.42910 -0.04100
H 	H 	0.42250 0.31480 0.27680 0.04100
H 	H 	0.47660 0.23760 0.33660 0.04500
H 	H 	0.86770 0.11740 0.25730 0.03600
H 	H 	0.78650 0.18720 0.32240 0.04000
H 	H 	0.72320 0.88520 0.35460 0.15400
H 	H 	0.88030 0.76400 0.41700 -0.04900
H 	H 	0.11470 0.94760 0.42960 -0.03800
H 	H 	0.95500 0.07420 0.37370 0.15400
H 	H 	0.88760 0.82500 0.69330 0.04400
H 	H 	0.03440 0.51440 0.69330 0.04600
H 	H 	0.62610 0.85440 0.55900 0.04700
H 	H 	0.30480 0.99180 0.44580 0.05100
H 	H 	0.61290 0.36800 0.93330 -0.03900
H 	H 	0.62310 0.51380 0.87410 0.15900
H 	H 	0.17230 0.58860 0.86870 0.15800
H 	H 	0.17520 0.44280 0.92910 -0.04200
H 	H 	0.23730 0.68520 0.77680 0.04100
H 	H 	0.21420 0.76240 0.83660 0.04500
H 	H 	0.48510 0.88260 0.75730 0.03600
H 	H 	0.47370 0.81280 0.82240 0.04100
H 	H 	0.10840 0.11480 0.85460 0.15200
H 	H 	0.14430 0.23600 0.91700 -0.05000
H 	H 	0.56230 0.05240 0.92960 -0.03500
H 	H 	0.52920 0.92580 0.87370 0.15100
H 	H 	0.21260 0.17500 0.19330 0.04500
H 	H 	0.04880 0.48560 0.19330 0.04900
H 	H 	0.98050 0.14560 0.05900 0.04600
H 	H 	0.79660 0.00820 0.94580 0.05200
H 	H 	0.51910 0.36800 0.56670 -0.03900
H 	H 	0.36310 0.51380 0.62590 0.15800
H 	H 	0.73910 0.58860 0.63130 0.15800
H 	H 	0.88200 0.44280 0.57090 -0.04100
H 	H 	0.57750 0.68520 0.72320 0.04100
H 	H 	0.52340 0.76240 0.66340 0.04500
H 	H 	0.13230 0.88260 0.74270 0.03600
H 	H 	0.21350 0.81280 0.67760 0.04000
H 	H 	0.27680 0.11480 0.64540 0.15400
H 	H 	0.11970 0.23600 0.58300 -0.04900
H 	H 	0.88530 0.05240 0.57040 -0.03800
H 	H 	0.04500 0.92580 0.62630 0.15400
H 	H 	0.11240 0.17500 0.30670 0.04400
H 	H 	0.96560 0.48560 0.30670 0.04600
H 	H 	0.37390 0.14560 0.44100 0.04700
H 	H 	0.69520 0.00820 0.55420 0.05100
C 	C 	0.47730 0.58680 0.08000 0.18400
C 	C 	0.46990 0.49960 0.11580 -0.32100
C 	C 	0.59990 0.43340 0.13640 0.34100
C 	C 	0.73600 0.45560 0.11870 -0.31900
C 	C 	0.73270 0.54300 0.08270 0.19700
C 	C 	0.71137 0.27906 0.20020 0.02500
C 	C 	0.58374 0.14532 0.21140 0.03200
C 	C 	0.68340 0.99360 0.14380 0.32800
C 	C 	0.79820 0.89940 0.12970 -0.31100
C 	C 	0.77560 0.82640 0.09270 0.18100
C 	C 	0.53210 0.93500 0.08490 0.16700
C 	C 	0.54990 0.01060 0.11930 -0.31800
C 	C 	0.79750 0.66740 0.89490 0.33200
C 	C 	0.85980 0.66940 0.81950 -0.06800
C 	C 	0.84020 0.76220 0.78400 -0.02600
C 	C 	0.93580 0.57720 0.78360 -0.02800
C 	C 	0.26880 0.81500 0.99340 0.37900
C 	C 	0.12930 0.91080 0.99750 -0.07600
C 	C 	0.01220 0.91240 0.96520 -0.00900
C 	C 	0.12110 0.99800 0.03190 -0.02200
C 	C 	0.43590 0.58680 0.42000 0.18400
C 	C 	0.53050 0.49960 0.38420 -0.32100
C 	C 	0.46670 0.43340 0.36360 0.34100
C 	C 	0.30840 0.45560 0.38130 -0.31800
C 	C 	0.22430 0.54300 0.41730 0.19700
C 	C 	0.50957 0.27906 0.29980 0.02500
C 	C 	0.77094 0.14532 0.28860 0.03300
C 	C 	0.82300 0.99360 0.35620 0.33400
C 	C 	0.80240 0.89940 0.37030 -0.31400
C 	C 	0.89800 0.82640 0.40730 0.18200
C 	C 	0.03290 0.93500 0.41510 0.17600
C 	C 	0.93950 0.01060 0.38070 -0.32900
C 	C 	0.03510 0.66740 0.60510 0.33400
C 	C 	0.97080 0.66940 0.68050 -0.07300
C 	C 	0.89760 0.76220 0.71600 -0.02200
C 	C 	0.98700 0.57720 0.71640 -0.02200
C 	C 	0.41620 0.81500 0.50660 0.37700
C 	C 	0.45990 0.91080 0.50250 -0.07800
C 	C 	0.57540 0.91240 0.53480 -0.01300
C 	C 	0.38090 0.99800 0.46810 -0.01800
C 	C 	0.52270 0.41320 0.92000 0.18400
C 	C 	0.53010 0.50040 0.88420 -0.32100
C 	C 	0.40010 0.56660 0.86360 0.34100
C 	C 	0.26400 0.54440 0.88130 -0.31900
C 	C 	0.26730 0.45700 0.91730 0.19700
C 	C 	0.28863 0.72094 0.79980 0.02500
C 	C 	0.41626 0.85468 0.78860 0.03200
C 	C 	0.31660 0.00640 0.85620 0.32800
C 	C 	0.20180 0.10060 0.87030 -0.31100
C 	C 	0.22440 0.17360 0.90730 0.18100
C 	C 	0.46790 0.06500 0.91510 0.16700
C 	C 	0.45010 0.98940 0.88070 -0.31800
C 	C 	0.20250 0.33260 0.10510 0.33200
C 	C 	0.14020 0.33060 0.18050 -0.06800
C 	C 	0.15980 0.23780 0.21600 -0.02600
C 	C 	0.06420 0.42280 0.21640 -0.02800
C 	C 	0.73120 0.18500 0.00660 0.37900
C 	C 	0.87070 0.08920 0.00250 -0.07600
C 	C 	0.98780 0.08760 0.03480 -0.00900
C 	C 	0.87890 0.00200 0.96810 -0.02200
C 	C 	0.56410 0.41320 0.58000 0.18400
C 	C 	0.46950 0.50040 0.61580 -0.32100
C 	C 	0.53330 0.56660 0.63640 0.34100
C 	C 	0.69160 0.54440 0.61870 -0.31800
C 	C 	0.77570 0.45700 0.58270 0.19700
C 	C 	0.49043 0.72094 0.70020 0.02500
C 	C 	0.22906 0.85468 0.71140 0.03300
C 	C 	0.17700 0.00640 0.64380 0.33400
C 	C 	0.19760 0.10060 0.62970 -0.31400
C 	C 	0.10200 0.17360 0.59270 0.18200
C 	C 	0.96710 0.06500 0.58490 0.17600
C 	C 	0.06050 0.98940 0.61930 -0.32900
C 	C 	0.96490 0.33260 0.39490 0.33400
C 	C 	0.02920 0.33060 0.31950 -0.07300
C 	C 	0.10240 0.23780 0.28400 -0.02200
C 	C 	0.01300 0.42280 0.28360 -0.02200
C 	C 	0.58380 0.18500 0.49340 0.37700
C 	C 	0.54010 0.08920 0.49750 -0.07800
C 	C 	0.42460 0.08760 0.46520 -0.01300
C 	C 	0.61910 0.00200 0.53190 -0.01800
C 	C 	0.64450 0.21100 0.25000 0.00500
C 	C 	0.35550 0.78900 0.75000 0.00500
N 	N 	0.60556 0.61008 0.06310 -0.31900
N 	N 	0.64394 0.84132 0.07010 -0.30300
N 	N 	0.28436 0.61008 0.43690 -0.31800
N 	N 	0.01474 0.84132 0.42990 -0.30400
N 	N 	0.39444 0.38992 0.93690 -0.31900
N 	N 	0.35606 0.15868 0.92990 -0.30300
N 	N 	0.71564 0.38992 0.56310 -0.31800
N 	N 	0.98526 0.15868 0.57010 -0.30400
O 	O 	0.58191 0.35198 0.17420 -0.25600
O 	O 	0.71246 0.06308 0.17890 -0.25600
O 	O 	0.69555 0.75010 0.91940 -0.47100
O 	O 	0.84790 0.58900 0.92810 -0.31600
O 	O 	0.37761 0.82658 0.01700 -0.47400
O 	O 	0.26898 0.73404 0.97150 -0.29500
O 	O 	0.56611 0.35198 0.32580 -0.25600
O 	O 	0.72446 0.06308 0.32110 -0.25800
O 	O 	0.05435 0.75010 0.58060 -0.47200
O 	O 	0.06310 0.58900 0.57190 -0.31700
O 	O 	0.29581 0.82658 0.48300 -0.47200
O 	O 	0.49698 0.73404 0.52850 -0.29500
O 	O 	0.41809 0.64802 0.82580 -0.25600
O 	O 	0.28754 0.93692 0.82110 -0.25600
O 	O 	0.30445 0.24990 0.08060 -0.47100
O 	O 	0.15210 0.41100 0.07190 -0.31600
O 	O 	0.62239 0.17342 0.98300 -0.47400
O 	O 	0.73102 0.26596 0.02850 -0.29500
O 	O 	0.43389 0.64802 0.67420 -0.25600
O 	O 	0.27554 0.93692 0.67890 -0.25800
O 	O 	0.94565 0.24990 0.41940 -0.47200
O 	O 	0.93690 0.41100 0.42810 -0.31700
O 	O 	0.70419 0.17342 0.51700 -0.47200
O 	O 	0.50302 0.26596 0.47150 -0.29500
