data_crystal

_cell_length_a 9.84290
_cell_length_b 11.33760
_cell_length_c 14.46930
_cell_angle_alpha 91.31250
_cell_angle_beta  90.00000
_cell_angle_gamma 90.00000

_symmetry_space_group_name_	'P 1'
_symmetry_space_group_name_H-M	'P 1'

loop_
_symmetry_equiv_pos_as_xyz
  x,y,z

loop_
_atom_site_label
_atom_site_type_symbol
_atom_site_fract_x
_atom_site_fract_y
_atom_site_fract_z
_atom_site_charge
Zn	Zn	0.92300 0.75662 0.13181 1.27400
Zn	Zn	0.10977 0.74091 0.31257 1.23700
Zn	Zn	0.42300 0.74338 0.36819 1.24600
Zn	Zn	0.60977 0.75909 0.18743 1.25200
Zn	Zn	0.07700 0.24338 0.86819 1.21500
Zn	Zn	0.89023 0.25909 0.68743 1.26400
Zn	Zn	0.57700 0.25662 0.63181 1.24300
Zn	Zn	0.39023 0.24091 0.81257 1.25000
Zn	Zn	-0.00000 0.50000 -0.00000 1.19000
Zn	Zn	0.50000 -0.00000 0.50000 1.23200
Zn	Zn	-0.00000 0.00000 -0.00000 1.16600
Zn	Zn	0.50000 0.50000 0.50000 1.25600
H 	H 	0.75630 0.85870 0.36780 -0.08100
H 	H 	0.03680 0.47770 0.26570 -0.08300
H 	H 	0.61810 0.56600 0.03670 -0.06600
H 	H 	0.19080 0.98260 0.23260 -0.15000
H 	H 	0.16060 0.69830 0.92770 -0.12300
H 	H 	0.70460 0.99120 0.01030 -0.09500
H 	H 	0.25630 0.64130 0.13220 -0.11800
H 	H 	0.53680 0.02230 0.23430 -0.25900
H 	H 	0.11810 0.93400 0.46330 -0.10600
H 	H 	0.69080 0.51740 0.26740 -0.10500
H 	H 	0.66060 0.80170 0.57230 -0.07200
H 	H 	0.20460 0.50880 0.48970 -0.11500
H 	H 	0.24370 0.14130 0.63220 -0.12800
H 	H 	0.96320 0.52230 0.73430 -0.12300
H 	H 	0.38190 0.43400 0.96330 -0.12500
H 	H 	0.80920 0.01740 0.76740 -0.07400
H 	H 	0.83940 0.30170 0.07230 -0.05800
H 	H 	0.29540 0.00880 0.98970 -0.08800
H 	H 	0.74370 0.35870 0.86780 -0.09000
H 	H 	0.46320 0.97770 0.76570 0.05300
H 	H 	0.88190 0.06600 0.53670 -0.08300
H 	H 	0.30920 0.48260 0.73260 -0.12000
H 	H 	0.33940 0.19830 0.42770 -0.11700
H 	H 	0.79540 0.49120 0.51030 -0.07400
C 	C 	0.82870 0.82956 0.33026 0.48300
C 	C 	0.01490 0.51937 0.21147 0.34100
C 	C 	0.71250 0.57774 0.04684 0.30700
C 	C 	0.13010 0.95465 0.18595 0.64900
C 	C 	0.10490 0.74294 0.96914 0.66100
C 	C 	0.72170 0.92929 0.05189 0.48400
C 	C 	0.32870 0.67044 0.16974 0.49300
C 	C 	0.51490 0.98063 0.28853 0.80700
C 	C 	0.21250 0.92226 0.45316 0.49100
C 	C 	0.63010 0.54535 0.31405 0.50400
C 	C 	0.60490 0.75706 0.53086 0.48800
C 	C 	0.22170 0.57071 0.44811 0.50500
C 	C 	0.17130 0.17044 0.66974 0.50000
C 	C 	0.98510 0.48063 0.78853 0.67500
C 	C 	0.28750 0.42226 0.95316 0.67700
C 	C 	0.86990 0.04535 0.81405 0.36300
C 	C 	0.89510 0.25706 0.03086 0.31900
C 	C 	0.27830 0.07071 0.94811 0.49600
C 	C 	0.67130 0.32956 0.83026 0.48800
C 	C 	0.48510 0.01937 0.71147 0.21400
C 	C 	0.78750 0.07774 0.54684 0.49500
C 	C 	0.36990 0.45465 0.68595 0.51000
C 	C 	0.39510 0.24294 0.46914 0.50700
C 	C 	0.77830 0.42929 0.55189 0.48400
O 	O 	0.80145 0.80733 0.24576 -0.54200
O 	O 	0.94084 0.81688 0.36874 -0.37000
O 	O 	0.00814 0.63045 0.21931 -0.58700
O 	O 	0.99594 0.45958 0.14001 -0.32300
O 	O 	0.74549 0.65302 0.10986 -0.51800
O 	O 	0.79084 0.51881 0.99769 -0.26300
O 	O 	0.08394 0.85095 0.19507 -0.64800
O 	O 	0.10466 0.02312 0.12320 -0.60900
O 	O 	0.02694 0.68455 0.02305 -0.72600
O 	O 	0.11406 0.85068 0.96609 -0.44200
O 	O 	0.84547 0.89759 0.06099 -0.54300
O 	O 	0.62204 0.88782 0.09148 -0.44500
O 	O 	0.30145 0.69267 0.25424 -0.57400
O 	O 	0.44084 0.68312 0.13126 -0.46300
O 	O 	0.50814 0.86955 0.28069 -0.65000
O 	O 	0.49594 0.04042 0.35999 -0.58200
O 	O 	0.24549 0.84698 0.39014 -0.57300
O 	O 	0.29084 0.98119 0.50231 -0.40300
O 	O 	0.58394 0.64905 0.30493 -0.57000
O 	O 	0.60466 0.47688 0.37680 -0.44600
O 	O 	0.52694 0.81545 0.47695 -0.55900
O 	O 	0.61406 0.64932 0.53391 -0.44000
O 	O 	0.34547 0.60241 0.43901 -0.58600
O 	O 	0.12204 0.61218 0.40852 -0.48500
O 	O 	0.19855 0.19267 0.75424 -0.60300
O 	O 	0.05916 0.18312 0.63126 -0.52400
O 	O 	0.99186 0.36955 0.78069 -0.57600
O 	O 	0.00406 0.54042 0.85999 -0.54200
O 	O 	0.25451 0.34698 0.89014 -0.62300
O 	O 	0.20916 0.48119 0.00231 -0.59700
O 	O 	0.91606 0.14905 0.80493 -0.49700
O 	O 	0.89534 0.97688 0.87680 -0.26300
O 	O 	0.97306 0.31545 0.97695 -0.40200
O 	O 	0.88594 0.14932 0.03391 -0.42600
O 	O 	0.15453 0.10241 0.93901 -0.59100
O 	O 	0.37796 0.11218 0.90852 -0.45300
O 	O 	0.69855 0.30733 0.74576 -0.57000
O 	O 	0.55916 0.31688 0.86874 -0.42900
O 	O 	0.49186 0.13045 0.71931 -0.51600
O 	O 	0.50406 0.95958 0.64001 -0.29800
O 	O 	0.75451 0.15302 0.60986 -0.56900
O 	O 	0.70916 0.01881 0.49769 -0.46800
O 	O 	0.41606 0.35095 0.69507 -0.58000
O 	O 	0.39534 0.52312 0.62320 -0.45100
O 	O 	0.47306 0.18455 0.52305 -0.58800
O 	O 	0.38594 0.35068 0.46609 -0.46500
O 	O 	0.65453 0.39759 0.56099 -0.57300
O 	O 	0.87796 0.38782 0.59148 -0.41500
