data_crystal

_cell_length_a 9.26700
_cell_length_b 13.25700
_cell_length_c 16.32400
_cell_angle_alpha 90.00000
_cell_angle_beta  94.97500
_cell_angle_gamma 90.00000

_symmetry_space_group_name_	'P 1'
_symmetry_space_group_name_H-M	'P 1'

loop_
_symmetry_equiv_pos_as_xyz
  x,y,z

loop_
_atom_site_label
_atom_site_type_symbol
_atom_site_fract_x
_atom_site_fract_y
_atom_site_fract_z
_atom_site_charge
Zn	Zn	0.73090 0.15523 0.81676 1.21100
Zn	Zn	0.76910 0.65523 0.68324 1.21200
Zn	Zn	0.26910 0.84477 0.18324 1.21100
Zn	Zn	0.23090 0.34477 0.31676 1.21200
H 	H 	0.99840 0.19740 0.04410 0.06200
H 	H 	0.25400 0.02550 0.91850 0.08300
H 	H 	0.40080 0.13460 0.13980 0.08300
H 	H 	0.28420 0.32400 0.90410 0.03800
H 	H 	0.68130 0.24720 0.98750 -0.00100
H 	H 	0.38780 0.22270 0.80740 0.02500
H 	H 	0.35980 0.37610 0.04800 0.05200
H 	H 	0.50440 0.33310 0.09150 0.05600
H 	H 	0.63630 0.46080 0.02690 0.06000
H 	H 	0.52870 0.50770 0.08540 0.06300
H 	H 	0.77800 0.89120 0.60750 0.03000
H 	H 	0.49300 0.82990 0.58600 0.05100
H 	H 	0.38740 0.91900 0.60180 0.04600
H 	H 	0.47770 0.02410 0.72520 -0.00800
H 	H 	0.88880 0.98990 0.71900 0.02600
H 	H 	0.43110 0.91600 0.46370 0.06700
H 	H 	0.59810 0.92350 0.48710 0.06400
H 	H 	0.50160 0.69740 0.45590 0.06200
H 	H 	0.24600 0.52550 0.58150 0.08100
H 	H 	0.09920 0.63460 0.36020 0.08100
H 	H 	0.21580 0.82400 0.59590 0.03700
H 	H 	0.81870 0.74720 0.51250 -0.00100
H 	H 	0.11220 0.72270 0.69260 0.02500
H 	H 	0.14020 0.87610 0.45200 0.05400
H 	H 	0.99560 0.83310 0.40850 0.06000
H 	H 	0.86370 0.96080 0.47310 0.05800
H 	H 	0.97130 0.00770 0.41460 0.05900
H 	H 	0.72200 0.39120 0.89250 0.02900
H 	H 	0.00700 0.32990 0.91400 0.05100
H 	H 	0.11260 0.41900 0.89820 0.04500
H 	H 	0.02230 0.52410 0.77480 -0.00800
H 	H 	0.61120 0.48990 0.78100 0.02600
H 	H 	0.06890 0.41600 0.03630 0.06700
H 	H 	0.90190 0.42350 0.01290 0.06500
H 	H 	0.00160 0.80260 0.95590 0.06100
H 	H 	0.74600 0.97450 0.08150 0.08200
H 	H 	0.59920 0.86540 0.86020 0.08200
H 	H 	0.71580 0.67600 0.09590 0.03700
H 	H 	0.31870 0.75280 0.01250 -0.00100
H 	H 	0.61220 0.77730 0.19260 0.02500
H 	H 	0.64020 0.62390 0.95200 0.05200
H 	H 	0.49560 0.66690 0.90850 0.05600
H 	H 	0.36370 0.53920 0.97310 0.06000
H 	H 	0.47130 0.49230 0.91460 0.06300
H 	H 	0.22200 0.10880 0.39250 0.03000
H 	H 	0.50700 0.17010 0.41400 0.05100
H 	H 	0.61260 0.08100 0.39820 0.04600
H 	H 	0.52230 0.97590 0.27480 -0.00800
H 	H 	0.11120 0.01010 0.28100 0.02600
H 	H 	0.56890 0.08400 0.53630 0.06700
H 	H 	0.40190 0.07650 0.51290 0.06400
H 	H 	0.49840 0.30260 0.54410 0.06200
H 	H 	0.75400 0.47450 0.41850 0.08100
H 	H 	0.90080 0.36540 0.63980 0.08100
H 	H 	0.78420 0.17600 0.40410 0.03700
H 	H 	0.18130 0.25280 0.48750 -0.00100
H 	H 	0.88780 0.27730 0.30740 0.02500
H 	H 	0.85980 0.12390 0.54800 0.05400
H 	H 	0.00440 0.16690 0.59150 0.06000
H 	H 	0.13630 0.03920 0.52690 0.05800
H 	H 	0.02870 0.99230 0.58540 0.05900
H 	H 	0.27800 0.60880 0.10750 0.02900
H 	H 	0.99300 0.67010 0.08600 0.05100
H 	H 	0.88740 0.58100 0.10180 0.04500
H 	H 	0.97770 0.47590 0.22520 -0.00800
H 	H 	0.38880 0.51010 0.21900 0.02600
H 	H 	0.93110 0.58400 0.96370 0.06700
H 	H 	0.09810 0.57650 0.98710 0.06500
C 	C 	0.08750 0.16640 0.03990 -0.01800
C 	C 	0.11060 0.11120 0.97030 -0.04500
C 	C 	0.17390 0.23730 0.17730 0.30700
C 	C 	0.99760 0.10710 0.89900 0.32900
C 	C 	0.19600 0.17580 0.10350 -0.04200
C 	C 	0.23920 0.06360 0.96490 -0.07900
C 	C 	0.32730 0.12840 0.09760 -0.09200
C 	C 	0.34920 0.07150 0.02860 0.08900
C 	C 	0.37650 0.29590 0.90860 -0.01500
C 	C 	0.59580 0.25270 0.95350 0.09200
C 	C 	0.43560 0.24100 0.85760 0.03300
C 	C 	0.46230 0.36680 0.04240 -0.05500
C 	C 	0.53470 0.47040 0.03470 -0.09700
C 	C 	0.73140 0.92990 0.64480 -0.01800
C 	C 	0.48390 0.90270 0.58710 -0.04900
C 	C 	0.56810 0.00340 0.71080 0.09800
C 	C 	0.78930 0.98400 0.70670 0.02700
C 	C 	0.50430 0.94480 0.50290 -0.09900
C 	C 	0.41250 0.66640 0.46010 -0.01700
C 	C 	0.38940 0.61120 0.52970 -0.05000
C 	C 	0.32610 0.73730 0.32270 0.30800
C 	C 	0.50240 0.60710 0.60100 0.33600
C 	C 	0.30400 0.67580 0.39650 -0.04300
C 	C 	0.26080 0.56360 0.53510 -0.07700
C 	C 	0.17270 0.62840 0.40240 -0.09100
C 	C 	0.15080 0.57150 0.47140 0.08800
C 	C 	0.12350 0.79590 0.59140 -0.01500
C 	C 	0.90420 0.75270 0.54650 0.09300
C 	C 	0.06440 0.74100 0.64240 0.03100
C 	C 	0.03770 0.86680 0.45760 -0.06400
C 	C 	0.96530 0.97040 0.46530 -0.09000
C 	C 	0.76860 0.42990 0.85520 -0.01800
C 	C 	0.01610 0.40270 0.91290 -0.04700
C 	C 	0.93190 0.50340 0.78920 0.09800
C 	C 	0.71070 0.48400 0.79330 0.02600
C 	C 	0.99570 0.44480 0.99710 -0.10100
C 	C 	0.91250 0.83360 0.96010 -0.01800
C 	C 	0.88940 0.88880 0.02970 -0.04500
C 	C 	0.82610 0.76270 0.82270 0.30700
C 	C 	0.00240 0.89290 0.10100 0.32900
C 	C 	0.80400 0.82420 0.89650 -0.04200
C 	C 	0.76080 0.93640 0.03510 -0.07900
C 	C 	0.67270 0.87160 0.90240 -0.09200
C 	C 	0.65080 0.92850 0.97140 0.08900
C 	C 	0.62350 0.70410 0.09140 -0.01500
C 	C 	0.40420 0.74730 0.04650 0.09200
C 	C 	0.56440 0.75900 0.14240 0.03300
C 	C 	0.53770 0.63320 0.95760 -0.05500
C 	C 	0.46530 0.52960 0.96530 -0.09700
C 	C 	0.26860 0.07010 0.35520 -0.01800
C 	C 	0.51610 0.09730 0.41290 -0.04900
C 	C 	0.43190 0.99660 0.28920 0.09800
C 	C 	0.21070 0.01600 0.29330 0.02700
C 	C 	0.49570 0.05520 0.49710 -0.09900
C 	C 	0.58750 0.33360 0.53990 -0.01700
C 	C 	0.61060 0.38880 0.47030 -0.05000
C 	C 	0.67390 0.26270 0.67730 0.30800
C 	C 	0.49760 0.39290 0.39900 0.33600
C 	C 	0.69600 0.32420 0.60350 -0.04300
C 	C 	0.73920 0.43640 0.46490 -0.07700
C 	C 	0.82730 0.37160 0.59760 -0.09100
C 	C 	0.84920 0.42850 0.52860 0.08800
C 	C 	0.87650 0.20410 0.40860 -0.01500
C 	C 	0.09580 0.24730 0.45350 0.09300
C 	C 	0.93560 0.25900 0.35760 0.03100
C 	C 	0.96230 0.13320 0.54240 -0.06400
C 	C 	0.03470 0.02960 0.53470 -0.09000
C 	C 	0.23140 0.57010 0.14480 -0.01800
C 	C 	0.98390 0.59730 0.08710 -0.04700
C 	C 	0.06810 0.49660 0.21080 0.09800
C 	C 	0.28930 0.51600 0.20670 0.02600
C 	C 	0.00430 0.55520 0.00290 -0.10100
N 	N 	0.48050 0.30340 0.97090 -0.11400
N 	N 	0.57140 0.21080 0.88030 -0.26100
N 	N 	0.48840 0.02550 0.03050 -0.09700
N 	N 	0.69370 0.02940 0.74990 -0.26300
N 	N 	0.59050 0.94390 0.64840 -0.11600
N 	N 	0.01950 0.80340 0.52910 -0.11400
N 	N 	0.92860 0.71080 0.61970 -0.26100
N 	N 	0.01160 0.52550 0.46950 -0.09600
N 	N 	0.80630 0.52940 0.75010 -0.26200
N 	N 	0.90950 0.44390 0.85160 -0.11700
N 	N 	0.51950 0.69660 0.02910 -0.11400
N 	N 	0.42860 0.78920 0.11970 -0.26100
N 	N 	0.51160 0.97450 0.96950 -0.09700
N 	N 	0.30630 0.97060 0.25010 -0.26300
N 	N 	0.40950 0.05610 0.35160 -0.11600
N 	N 	0.98050 0.19660 0.47090 -0.11400
N 	N 	0.07140 0.28920 0.38030 -0.26100
N 	N 	0.98840 0.47450 0.53050 -0.09600
N 	N 	0.19370 0.47060 0.24990 -0.26200
N 	N 	0.09050 0.55610 0.14840 -0.11700
O 	O 	0.87860 0.15250 0.90890 -0.45800
O 	O 	0.28250 0.25230 0.22840 -0.43700
O 	O 	0.05190 0.27280 0.18630 -0.31500
O 	O 	0.02200 0.06470 0.83620 -0.30700
O 	O 	0.62140 0.65250 0.59110 -0.45900
O 	O 	0.21750 0.75230 0.27160 -0.43800
O 	O 	0.44810 0.77280 0.31370 -0.31600
O 	O 	0.47800 0.56470 0.66380 -0.31100
O 	O 	0.12140 0.84750 0.09110 -0.45800
O 	O 	0.71750 0.74770 0.77160 -0.43700
O 	O 	0.94810 0.72720 0.81370 -0.31500
O 	O 	0.97800 0.93530 0.16380 -0.30700
O 	O 	0.37860 0.34750 0.40890 -0.45900
O 	O 	0.78250 0.24770 0.72840 -0.43800
O 	O 	0.55190 0.22720 0.68630 -0.31600
O 	O 	0.52200 0.43530 0.33620 -0.31100
