data_crystal

_cell_length_a 7.35850
_cell_length_b 18.70290
_cell_length_c 23.59650
_cell_angle_alpha 90.00000
_cell_angle_beta  90.00000
_cell_angle_gamma 90.00000

_symmetry_space_group_name_	'P 1'
_symmetry_space_group_name_H-M	'P 1'

loop_
_symmetry_equiv_pos_as_xyz
  x,y,z

loop_
_atom_site_label
_atom_site_type_symbol
_atom_site_fract_x
_atom_site_fract_y
_atom_site_fract_z
_atom_site_charge
Ca	Ca	0.50000 0.50000 -0.00000 1.50300
Ca	Ca	-0.00000 0.00000 -0.00000 1.48400
Ca	Ca	0.50000 0.50000 0.50000 1.51300
Ca	Ca	0.00000 0.00000 0.50000 1.49400
Zn	Zn	0.85800 0.54915 0.91328 1.20100
Zn	Zn	0.64200 0.04915 0.08672 1.17500
Zn	Zn	0.14200 0.45085 0.41328 1.18700
Zn	Zn	0.35800 0.95085 0.58672 1.20600
Zn	Zn	0.14200 0.45085 0.08672 1.18300
Zn	Zn	0.35800 0.95085 0.91328 1.20800
Zn	Zn	0.85800 0.54915 0.58672 1.19700
Zn	Zn	0.64200 0.04915 0.41328 1.17700
H 	H 	0.77380 0.29680 0.02240 0.00100
H 	H 	0.99740 0.33090 0.86980 0.15000
H 	H 	0.90570 0.13060 0.92270 0.13700
H 	H 	0.92900 0.18840 0.80650 0.37600
H 	H 	0.10840 0.23260 0.81360 0.34500
H 	H 	0.09720 0.15440 0.83710 0.35400
H 	H 	0.20430 0.45500 0.83500 0.02700
H 	H 	0.90730 0.44350 0.77520 0.06200
H 	H 	0.72620 0.79680 0.97760 0.15600
H 	H 	0.50260 0.83090 0.13020 0.12600
H 	H 	0.59430 0.63060 0.07730 0.09400
H 	H 	0.57100 0.68840 0.19350 0.27300
H 	H 	0.39160 0.73260 0.18640 0.27000
H 	H 	0.40280 0.65440 0.16290 0.27900
H 	H 	0.29570 0.95500 0.16500 0.08400
H 	H 	0.59270 0.94350 0.22480 0.10000
H 	H 	0.22620 0.70320 0.52240 0.03800
H 	H 	0.00260 0.66910 0.36980 0.05200
H 	H 	0.09430 0.86940 0.42270 0.05300
H 	H 	0.07100 0.81160 0.30650 0.10000
H 	H 	0.89160 0.76740 0.31360 0.13800
H 	H 	0.90280 0.84560 0.33710 0.15600
H 	H 	0.79570 0.54500 0.33500 0.07600
H 	H 	0.09270 0.55650 0.27520 0.08300
H 	H 	0.27380 0.20320 0.47760 0.05100
H 	H 	0.49740 0.16910 0.63020 0.09900
H 	H 	0.40570 0.36940 0.57730 0.08600
H 	H 	0.42900 0.31160 0.69350 0.23200
H 	H 	0.60840 0.26740 0.68640 0.23600
H 	H 	0.59720 0.34560 0.66290 0.25400
H 	H 	0.70430 0.04500 0.66500 0.01400
H 	H 	0.40730 0.05650 0.72480 0.04600
H 	H 	0.22620 0.70320 0.97760 0.12200
H 	H 	0.00260 0.66910 0.13020 0.06000
H 	H 	0.09430 0.86940 0.07730 0.04800
H 	H 	0.07100 0.81160 0.19350 0.10400
H 	H 	0.89160 0.76740 0.18640 0.14300
H 	H 	0.90280 0.84560 0.16290 0.16100
H 	H 	0.79570 0.54500 0.16500 0.07300
H 	H 	0.09270 0.55650 0.22480 0.08300
H 	H 	0.27380 0.20320 0.02240 -0.03700
H 	H 	0.49740 0.16910 0.86980 0.09000
H 	H 	0.40570 0.36940 0.92270 0.09300
H 	H 	0.42900 0.31160 0.80650 0.22600
H 	H 	0.60840 0.26740 0.81360 0.23100
H 	H 	0.59720 0.34560 0.83710 0.24800
H 	H 	0.70430 0.04500 0.83500 0.01800
H 	H 	0.40730 0.05650 0.77520 0.04600
H 	H 	0.77380 0.29680 0.47760 0.08700
H 	H 	0.99740 0.33090 0.63020 0.15900
H 	H 	0.90570 0.13060 0.57730 0.12900
H 	H 	0.92900 0.18840 0.69350 0.38300
H 	H 	0.10840 0.23260 0.68640 0.35100
H 	H 	0.09720 0.15440 0.66290 0.36000
H 	H 	0.20430 0.45500 0.66500 0.02400
H 	H 	0.90730 0.44350 0.72480 0.06200
H 	H 	0.72620 0.79680 0.52240 0.07600
H 	H 	0.50260 0.83090 0.36980 0.11900
H 	H 	0.59430 0.63060 0.42270 0.10100
H 	H 	0.57100 0.68840 0.30650 0.26800
H 	H 	0.39160 0.73260 0.31360 0.26600
H 	H 	0.40280 0.65440 0.33710 0.27400
H 	H 	0.29570 0.95500 0.33500 0.08600
H 	H 	0.59270 0.94350 0.27520 0.10000
H 	H 	0.63090 0.53430 0.75000 0.04000
H 	H 	0.86910 0.03430 0.25000 0.07800
H 	H 	0.36910 0.46570 0.25000 0.04100
H 	H 	0.13090 0.96570 0.75000 0.00700
C 	C 	0.82190 0.27914 0.98873 0.01300
C 	C 	0.87930 0.32587 0.94707 0.02000
C 	C 	0.95350 0.29920 0.89692 -0.30400
C 	C 	0.84830 0.40480 0.95424 0.34200
C 	C 	0.77170 0.15700 0.02649 0.24300
C 	C 	0.83600 0.20552 0.98042 0.08100
C 	C 	0.90200 0.17961 0.92902 -0.31700
C 	C 	0.96260 0.22610 0.88699 0.47200
C 	C 	0.03050 0.19780 0.83092 -1.17500
C 	C 	0.52930 0.51385 0.85533 0.38700
C 	C 	0.43260 0.49724 0.80098 -0.12200
C 	C 	0.26070 0.46570 0.80070 -0.03600
C 	C 	0.67810 0.77914 0.01127 -0.18000
C 	C 	0.62070 0.82587 0.05293 0.04900
C 	C 	0.54650 0.79920 0.10308 -0.25300
C 	C 	0.65170 0.90480 0.04576 0.31900
C 	C 	0.72830 0.65700 0.97351 0.35300
C 	C 	0.66400 0.70552 0.01958 -0.00100
C 	C 	0.59800 0.67961 0.07098 -0.22900
C 	C 	0.53740 0.72610 0.11301 0.33800
C 	C 	0.46950 0.69780 0.16908 -0.85200
C 	C 	0.97070 0.01385 0.14467 0.38000
C 	C 	0.06740 0.99724 0.19902 0.01100
C 	C 	0.23930 0.96570 0.19930 -0.13300
C 	C 	0.17810 0.72086 0.48873 0.00800
C 	C 	0.12070 0.67413 0.44707 -0.09000
C 	C 	0.04650 0.70080 0.39692 -0.08700
C 	C 	0.15170 0.59520 0.45424 0.36800
C 	C 	0.22830 0.84300 0.52649 0.32400
C 	C 	0.16400 0.79448 0.48042 -0.07300
C 	C 	0.09800 0.82039 0.42902 -0.09100
C 	C 	0.03740 0.77390 0.38699 0.08700
C 	C 	0.96950 0.80220 0.33092 -0.36100
C 	C 	0.47070 0.48615 0.35533 0.37900
C 	C 	0.56740 0.50276 0.30098 -0.08400
C 	C 	0.73930 0.53430 0.30070 -0.10600
C 	C 	0.32190 0.22086 0.51127 -0.04600
C 	C 	0.37930 0.17413 0.55293 -0.03000
C 	C 	0.45350 0.20080 0.60308 -0.20400
C 	C 	0.34830 0.09520 0.54576 0.34800
C 	C 	0.27170 0.34300 0.47351 0.31100
C 	C 	0.33600 0.29448 0.51958 -0.01800
C 	C 	0.40200 0.32039 0.57098 -0.20200
C 	C 	0.46260 0.27390 0.61301 0.27700
C 	C 	0.53050 0.30220 0.66908 -0.76800
C 	C 	0.02930 0.98615 0.64467 0.38500
C 	C 	0.93260 0.00276 0.69902 -0.21300
C 	C 	0.76070 0.03430 0.69930 -0.01000
C 	C 	0.17810 0.72086 0.01127 -0.11300
C 	C 	0.12070 0.67413 0.05293 -0.04900
C 	C 	0.04650 0.70080 0.10308 -0.11300
C 	C 	0.15170 0.59520 0.04576 0.34800
C 	C 	0.22830 0.84300 0.97351 0.37000
C 	C 	0.16400 0.79448 0.01958 -0.08600
C 	C 	0.09800 0.82039 0.07098 -0.09700
C 	C 	0.03740 0.77390 0.11301 0.10300
C 	C 	0.96950 0.80220 0.16908 -0.37700
C 	C 	0.47070 0.48615 0.14467 0.38200
C 	C 	0.56740 0.50276 0.19902 -0.08700
C 	C 	0.73930 0.53430 0.19930 -0.10500
C 	C 	0.32190 0.22086 0.98873 0.08200
C 	C 	0.37930 0.17413 0.94707 -0.07100
C 	C 	0.45350 0.20080 0.89692 -0.17700
C 	C 	0.34830 0.09520 0.95424 0.36800
C 	C 	0.27170 0.34300 0.02649 0.26100
C 	C 	0.33600 0.29448 0.98042 -0.00200
C 	C 	0.40200 0.32039 0.92902 -0.19700
C 	C 	0.46260 0.27390 0.88699 0.26100
C 	C 	0.53050 0.30220 0.83092 -0.75100
C 	C 	0.02930 0.98615 0.85533 0.38200
C 	C 	0.93260 0.00276 0.80098 -0.20900
C 	C 	0.76070 0.03430 0.80070 -0.01200
C 	C 	0.82190 0.27914 0.51127 -0.11100
C 	C 	0.87930 0.32587 0.55293 0.06100
C 	C 	0.95350 0.29920 0.60308 -0.33200
C 	C 	0.84830 0.40480 0.54576 0.32200
C 	C 	0.77170 0.15700 0.47351 0.29300
C 	C 	0.83600 0.20552 0.51958 0.06300
C 	C 	0.90200 0.17961 0.57098 -0.32300
C 	C 	0.96260 0.22610 0.61301 0.48900
C 	C 	0.03050 0.19780 0.66908 -1.19600
C 	C 	0.52930 0.51385 0.64467 0.39100
C 	C 	0.43260 0.49724 0.69902 -0.12400
C 	C 	0.26070 0.46570 0.69930 -0.03500
C 	C 	0.67810 0.77914 0.48873 -0.06400
C 	C 	0.62070 0.82587 0.44707 0.01100
C 	C 	0.54650 0.79920 0.39692 -0.22800
C 	C 	0.65170 0.90480 0.45424 0.33800
C 	C 	0.72830 0.65700 0.52649 0.30600
C 	C 	0.66400 0.70552 0.48042 0.01600
C 	C 	0.59800 0.67961 0.42902 -0.22500
C 	C 	0.53740 0.72610 0.38699 0.32400
C 	C 	0.46950 0.69780 0.33092 -0.83600
C 	C 	0.97070 0.01385 0.35533 0.37800
C 	C 	0.06740 0.99724 0.30098 0.01300
C 	C 	0.23930 0.96570 0.30070 -0.13400
C 	C 	0.51670 0.51290 0.75000 0.03900
C 	C 	0.17170 0.44970 0.75000 -0.01700
C 	C 	0.98460 0.41710 0.75000 -0.14500
C 	C 	0.98330 0.01290 0.25000 -0.13400
C 	C 	0.32830 0.94970 0.25000 0.12000
C 	C 	0.51540 0.91710 0.25000 -0.24000
C 	C 	0.48330 0.48710 0.25000 0.00600
C 	C 	0.82830 0.55030 0.25000 0.12400
C 	C 	0.01540 0.58290 0.25000 -0.27600
C 	C 	0.01670 0.98710 0.75000 0.16700
C 	C 	0.67170 0.05030 0.75000 -0.01300
C 	C 	0.48460 0.08290 0.75000 -0.17600
O 	O 	0.74480 0.42513 0.99269 -0.46700
O 	O 	0.92610 0.44661 0.91943 -0.46500
O 	O 	0.77320 0.08850 0.01777 -0.60300
O 	O 	0.71400 0.18102 0.07176 -0.34700
O 	O 	0.45510 0.50032 0.90172 -0.48300
O 	O 	0.68650 0.54102 0.85009 -0.48600
O 	O 	0.75520 0.92513 0.00731 -0.48900
O 	O 	0.57390 0.94661 0.08057 -0.45400
O 	O 	0.72680 0.58850 0.98223 -0.55400
O 	O 	0.78600 0.68102 0.92824 -0.33600
O 	O 	0.04490 0.00032 0.09828 -0.57500
O 	O 	0.81350 0.04102 0.14991 -0.51400
O 	O 	0.25520 0.57487 0.49269 -0.52000
O 	O 	0.07390 0.55339 0.41943 -0.51100
O 	O 	0.22680 0.91150 0.51777 -0.57200
O 	O 	0.28600 0.81898 0.57176 -0.35500
O 	O 	0.54490 0.49968 0.40172 -0.48800
O 	O 	0.31350 0.45898 0.35009 -0.49900
O 	O 	0.24480 0.07487 0.50731 -0.54300
O 	O 	0.42610 0.05339 0.58057 -0.52600
O 	O 	0.27320 0.41150 0.48223 -0.59000
O 	O 	0.21400 0.31898 0.42824 -0.36600
O 	O 	0.95510 0.99968 0.59828 -0.41500
O 	O 	0.18650 0.95898 0.64991 -0.47500
O 	O 	0.25520 0.57487 0.00731 -0.54600
O 	O 	0.07390 0.55339 0.08057 -0.51600
O 	O 	0.22680 0.91150 0.98223 -0.55500
O 	O 	0.28600 0.81898 0.92824 -0.35500
O 	O 	0.54490 0.49968 0.09828 -0.49900
O 	O 	0.31350 0.45898 0.14991 -0.50100
O 	O 	0.24480 0.07487 0.99269 -0.51200
O 	O 	0.42610 0.05339 0.91943 -0.52000
O 	O 	0.27320 0.41150 0.01777 -0.60600
O 	O 	0.21400 0.31898 0.07176 -0.36600
O 	O 	0.95510 0.99968 0.90172 -0.40300
O 	O 	0.18650 0.95898 0.85009 -0.47300
O 	O 	0.74480 0.42513 0.50731 -0.49600
O 	O 	0.92610 0.44661 0.58057 -0.47000
O 	O 	0.77320 0.08850 0.48223 -0.58700
O 	O 	0.71400 0.18102 0.42824 -0.34700
O 	O 	0.45510 0.50032 0.59828 -0.49700
O 	O 	0.68650 0.54102 0.64991 -0.48900
O 	O 	0.75520 0.92513 0.49269 -0.46500
O 	O 	0.57390 0.94661 0.41943 -0.45100
O 	O 	0.72680 0.58850 0.51777 -0.57300
O 	O 	0.78600 0.68102 0.57176 -0.33500
O 	O 	0.04490 0.00032 0.40172 -0.56300
O 	O 	0.81350 0.04102 0.35009 -0.51100
