data_crystal

_cell_length_a 16.15780
_cell_length_b 18.10390
_cell_length_c 18.80700
_cell_angle_alpha 90.00000
_cell_angle_beta  90.00000
_cell_angle_gamma 92.61500

_symmetry_space_group_name_	'P 1'
_symmetry_space_group_name_H-M	'P 1'

loop_
_symmetry_equiv_pos_as_xyz
  x,y,z

loop_
_atom_site_label
_atom_site_type_symbol
_atom_site_fract_x
_atom_site_fract_y
_atom_site_fract_z
_atom_site_charge
Zn	Zn	0.63455 0.32766 0.49980 1.21500
Zn	Zn	0.81421 0.35782 0.50078 1.21300
Zn	Zn	0.63455 0.82766 0.00020 1.21600
Zn	Zn	0.81421 0.85782 0.99922 1.21300
Zn	Zn	0.36545 0.17234 0.99980 1.21600
Zn	Zn	0.18579 0.14217 0.00078 1.21400
Zn	Zn	0.36545 0.67234 0.50020 1.21600
Zn	Zn	0.18579 0.64217 0.49922 1.21400
H 	H 	0.57600 0.49500 0.65300 0.04200
H 	H 	0.55800 0.58640 0.74330 0.05000
H 	H 	0.62900 0.66650 0.83580 0.06500
H 	H 	0.87300 0.66460 0.87300 0.04100
H 	H 	0.88500 0.56880 0.78880 0.05700
H 	H 	0.82540 0.48700 0.69280 0.04700
H 	H 	0.58500 0.46920 0.32250 0.03900
H 	H 	0.57000 0.54970 0.22880 0.05800
H 	H 	0.63140 0.64860 0.15040 0.05700
H 	H 	0.86300 0.73290 0.19130 0.04500
H 	H 	0.88400 0.64720 0.28170 0.04900
H 	H 	0.82170 0.54860 0.35870 0.05100
H 	H 	0.95590 0.30770 0.57580 -0.01500
H 	H 	0.10200 0.31200 0.57400 0.09200
H 	H 	0.22600 0.43100 0.46760 0.05300
H 	H 	0.22500 0.28910 0.53140 0.08000
H 	H 	0.34400 0.22800 0.53200 0.15100
H 	H 	0.48500 0.22400 0.52500 -0.05900
H 	H 	0.50400 0.42860 0.48090 -0.03600
H 	H 	0.37100 0.43880 0.48500 0.15300
H 	H 	0.08570 0.45740 0.41580 0.10000
H 	H 	0.94630 0.44470 0.42090 -0.01000
H 	H 	0.57600 0.99500 0.84700 0.04100
H 	H 	0.55800 0.08640 0.75670 0.05000
H 	H 	0.62900 0.16650 0.66420 0.06500
H 	H 	0.87300 0.16460 0.62700 0.04100
H 	H 	0.88500 0.06880 0.71120 0.05700
H 	H 	0.82540 0.98700 0.80720 0.04700
H 	H 	0.58500 0.96920 0.17750 0.03900
H 	H 	0.57000 0.04970 0.27120 0.05800
H 	H 	0.63140 0.14860 0.34960 0.05700
H 	H 	0.86300 0.23290 0.30870 0.04500
H 	H 	0.88400 0.14720 0.21830 0.04900
H 	H 	0.82170 0.04860 0.14130 0.05200
H 	H 	0.95590 0.80770 0.92420 -0.01200
H 	H 	0.10200 0.81200 0.92600 0.08900
H 	H 	0.22600 0.93100 0.03240 0.05300
H 	H 	0.22500 0.78910 0.96860 0.08000
H 	H 	0.34400 0.72800 0.96800 0.15200
H 	H 	0.48500 0.72400 0.97500 -0.06000
H 	H 	0.50400 0.92860 0.01910 -0.03600
H 	H 	0.37100 0.93880 0.01500 0.15400
H 	H 	0.08570 0.95740 0.08420 0.10000
H 	H 	0.94630 0.94470 0.07910 -0.01000
H 	H 	0.42400 0.00500 0.15300 0.04100
H 	H 	0.44200 0.91360 0.24330 0.05000
H 	H 	0.37100 0.83350 0.33580 0.06500
H 	H 	0.12700 0.83540 0.37300 0.04100
H 	H 	0.11500 0.93120 0.28880 0.05700
H 	H 	0.17460 0.01300 0.19280 0.04700
H 	H 	0.41500 0.03080 0.82250 0.03900
H 	H 	0.43000 0.95030 0.72880 0.05800
H 	H 	0.36860 0.85140 0.65040 0.05700
H 	H 	0.13700 0.76710 0.69130 0.04500
H 	H 	0.11600 0.85280 0.78170 0.04900
H 	H 	0.17830 0.95140 0.85870 0.05200
H 	H 	0.04410 0.19230 0.07580 -0.01200
H 	H 	0.89800 0.18800 0.07400 0.08900
H 	H 	0.77400 0.06900 0.96760 0.05300
H 	H 	0.77500 0.21090 0.03140 0.08000
H 	H 	0.65600 0.27200 0.03200 0.15200
H 	H 	0.51500 0.27600 0.02500 -0.06000
H 	H 	0.49600 0.07140 0.98090 -0.03600
H 	H 	0.62900 0.06120 0.98500 0.15400
H 	H 	0.91430 0.04260 0.91580 0.10000
H 	H 	0.05370 0.05530 0.92090 -0.01000
H 	H 	0.42400 0.50500 0.34700 0.04200
H 	H 	0.44200 0.41360 0.25670 0.05000
H 	H 	0.37100 0.33350 0.16420 0.06500
H 	H 	0.12700 0.33540 0.12700 0.04100
H 	H 	0.11500 0.43120 0.21120 0.05700
H 	H 	0.17460 0.51300 0.30720 0.04700
H 	H 	0.41500 0.53080 0.67750 0.03900
H 	H 	0.43000 0.45030 0.77120 0.05800
H 	H 	0.36860 0.35140 0.84960 0.05700
H 	H 	0.13700 0.26710 0.80870 0.04500
H 	H 	0.11600 0.35280 0.71830 0.04900
H 	H 	0.17830 0.45140 0.64130 0.05100
H 	H 	0.04410 0.69230 0.42420 -0.01500
H 	H 	0.89800 0.68800 0.42600 0.09200
H 	H 	0.77400 0.56900 0.53240 0.05300
H 	H 	0.77500 0.71090 0.46860 0.08000
H 	H 	0.65600 0.77200 0.46800 0.15100
H 	H 	0.51500 0.77600 0.47500 -0.05900
H 	H 	0.49600 0.57140 0.51910 -0.03600
H 	H 	0.62900 0.56120 0.51500 0.15300
H 	H 	0.91430 0.54260 0.58420 0.10000
H 	H 	0.05370 0.55530 0.57910 -0.01000
C 	C 	0.71177 0.43349 0.60408 0.37100
C 	C 	0.70257 0.48641 0.66462 -0.08900
C 	C 	0.62339 0.51299 0.68047 0.00900
C 	C 	0.61455 0.56406 0.73251 -0.06800
C 	C 	0.68437 0.59159 0.77185 0.02500
C 	C 	0.67820 0.64721 0.82376 -0.04200
C 	C 	0.74697 0.67490 0.85965 -0.07800
C 	C 	0.82483 0.64501 0.84667 0.01300
C 	C 	0.83279 0.59054 0.79749 -0.07800
C 	C 	0.76335 0.56316 0.75770 0.01700
C 	C 	0.77015 0.51023 0.70342 -0.01900
C 	C 	0.73899 0.73659 0.91201 0.37600
C 	C 	0.71190 0.44572 0.40852 0.37700
C 	C 	0.70381 0.50138 0.35042 -0.08900
C 	C 	0.62872 0.50363 0.31213 0.01700
C 	C 	0.62072 0.55100 0.25725 -0.08100
C 	C 	0.68718 0.60052 0.23733 0.02600
C 	C 	0.68090 0.65094 0.18043 -0.03000
C 	C 	0.74597 0.69825 0.16249 -0.07900
C 	C 	0.82090 0.69646 0.20073 0.00400
C 	C 	0.82957 0.64874 0.25565 -0.06600
C 	C 	0.76271 0.59950 0.27585 0.01300
C 	C 	0.76920 0.54856 0.33225 -0.01900
C 	C 	0.73635 0.75133 0.10229 0.37500
C 	C 	0.98416 0.33613 0.54469 0.10600
C 	C 	0.06942 0.33950 0.54394 -0.17600
C 	C 	0.11141 0.38371 0.49398 0.11900
C 	C 	0.20185 0.38621 0.48881 -0.04400
C 	C 	0.24771 0.33278 0.51264 -0.15000
C 	C 	0.33810 0.33165 0.50830 0.22400
C 	C 	0.37709 0.26615 0.52090 -0.31000
C 	C 	0.46177 0.26462 0.51641 0.21000
C 	C 	0.47193 0.38763 0.48901 0.17300
C 	C 	0.38830 0.39366 0.49225 -0.28700
C 	C 	0.06393 0.42522 0.44928 -0.18600
C 	C 	0.97881 0.41842 0.45301 0.10900
C 	C 	0.71177 0.93349 0.89592 0.37100
C 	C 	0.70257 0.98641 0.83538 -0.09000
C 	C 	0.62339 0.01299 0.81953 0.00900
C 	C 	0.61455 0.06406 0.76749 -0.06800
C 	C 	0.68437 0.09159 0.72815 0.02500
C 	C 	0.67820 0.14721 0.67624 -0.04200
C 	C 	0.74697 0.17490 0.64035 -0.07800
C 	C 	0.82483 0.14501 0.65333 0.01300
C 	C 	0.83279 0.09054 0.70251 -0.07800
C 	C 	0.76335 0.06316 0.74230 0.01700
C 	C 	0.77015 0.01023 0.79658 -0.01800
C 	C 	0.73899 0.23659 0.58799 0.37600
C 	C 	0.71190 0.94572 0.09148 0.37700
C 	C 	0.70381 0.00138 0.14958 -0.08800
C 	C 	0.62872 0.00363 0.18787 0.01700
C 	C 	0.62072 0.05100 0.24275 -0.08100
C 	C 	0.68718 0.10052 0.26267 0.02600
C 	C 	0.68090 0.15094 0.31957 -0.03000
C 	C 	0.74597 0.19825 0.33751 -0.08000
C 	C 	0.82090 0.19646 0.29927 0.00400
C 	C 	0.82957 0.14874 0.24435 -0.06600
C 	C 	0.76271 0.09950 0.22415 0.01300
C 	C 	0.76920 0.04856 0.16775 -0.01900
C 	C 	0.73635 0.25133 0.39771 0.37500
C 	C 	0.98416 0.83613 0.95531 0.09700
C 	C 	0.06942 0.83950 0.95606 -0.16600
C 	C 	0.11141 0.88371 0.00602 0.11500
C 	C 	0.20185 0.88621 0.01119 -0.04300
C 	C 	0.24771 0.83278 0.98736 -0.14900
C 	C 	0.33810 0.83165 0.99170 0.22600
C 	C 	0.37709 0.76615 0.97910 -0.31000
C 	C 	0.46177 0.76462 0.98359 0.21100
C 	C 	0.47193 0.88763 0.01099 0.17500
C 	C 	0.38830 0.89366 0.00775 -0.28800
C 	C 	0.06393 0.92522 0.05072 -0.18600
C 	C 	0.97881 0.91842 0.04699 0.11000
C 	C 	0.28823 0.06651 0.10408 0.37100
C 	C 	0.29743 0.01359 0.16462 -0.09000
C 	C 	0.37661 0.98701 0.18047 0.00900
C 	C 	0.38545 0.93594 0.23251 -0.06800
C 	C 	0.31563 0.90841 0.27185 0.02500
C 	C 	0.32180 0.85279 0.32376 -0.04200
C 	C 	0.25303 0.82510 0.35965 -0.07800
C 	C 	0.17517 0.85499 0.34667 0.01300
C 	C 	0.16721 0.90946 0.29749 -0.07800
C 	C 	0.23665 0.93684 0.25770 0.01700
C 	C 	0.22985 0.98977 0.20342 -0.01800
C 	C 	0.26101 0.76341 0.41201 0.37600
C 	C 	0.28810 0.05428 0.90852 0.37700
C 	C 	0.29619 0.99862 0.85042 -0.08800
C 	C 	0.37128 0.99637 0.81213 0.01700
C 	C 	0.37928 0.94900 0.75725 -0.08100
C 	C 	0.31282 0.89948 0.73733 0.02600
C 	C 	0.31910 0.84906 0.68043 -0.03000
C 	C 	0.25403 0.80175 0.66249 -0.08000
C 	C 	0.17910 0.80354 0.70073 0.00400
C 	C 	0.17043 0.85126 0.75565 -0.06600
C 	C 	0.23729 0.90050 0.77585 0.01300
C 	C 	0.23080 0.95144 0.83225 -0.01900
C 	C 	0.26365 0.74867 0.60229 0.37500
C 	C 	0.01584 0.16387 0.04469 0.09700
C 	C 	0.93058 0.16050 0.04394 -0.16600
C 	C 	0.88859 0.11629 0.99398 0.11500
C 	C 	0.79815 0.11379 0.98881 -0.04300
C 	C 	0.75229 0.16722 0.01264 -0.14900
C 	C 	0.66190 0.16835 0.00830 0.22600
C 	C 	0.62291 0.23385 0.02090 -0.31000
C 	C 	0.53823 0.23538 0.01641 0.21100
C 	C 	0.52807 0.11237 0.98901 0.17500
C 	C 	0.61170 0.10634 0.99225 -0.28800
C 	C 	0.93607 0.07478 0.94928 -0.18600
C 	C 	0.02119 0.08158 0.95301 0.11000
C 	C 	0.28823 0.56651 0.39592 0.37100
C 	C 	0.29743 0.51359 0.33538 -0.08900
C 	C 	0.37661 0.48701 0.31953 0.00900
C 	C 	0.38545 0.43594 0.26749 -0.06800
C 	C 	0.31563 0.40841 0.22815 0.02500
C 	C 	0.32180 0.35279 0.17624 -0.04200
C 	C 	0.25303 0.32510 0.14035 -0.07800
C 	C 	0.17517 0.35499 0.15333 0.01300
C 	C 	0.16721 0.40946 0.20251 -0.07800
C 	C 	0.23665 0.43684 0.24230 0.01700
C 	C 	0.22985 0.48977 0.29658 -0.01900
C 	C 	0.26101 0.26341 0.08799 0.37600
C 	C 	0.28810 0.55428 0.59148 0.37700
C 	C 	0.29619 0.49862 0.64958 -0.08900
C 	C 	0.37128 0.49637 0.68787 0.01700
C 	C 	0.37928 0.44900 0.74275 -0.08100
C 	C 	0.31282 0.39948 0.76267 0.02600
C 	C 	0.31910 0.34906 0.81957 -0.03000
C 	C 	0.25403 0.30175 0.83751 -0.07900
C 	C 	0.17910 0.30354 0.79927 0.00400
C 	C 	0.17043 0.35126 0.74435 -0.06600
C 	C 	0.23729 0.40050 0.72415 0.01300
C 	C 	0.23080 0.45144 0.66775 -0.01900
C 	C 	0.26365 0.24867 0.89771 0.37500
C 	C 	0.01584 0.66387 0.45531 0.10600
C 	C 	0.93058 0.66050 0.45606 -0.17600
C 	C 	0.88859 0.61629 0.50602 0.11900
C 	C 	0.79815 0.61379 0.51119 -0.04400
C 	C 	0.75229 0.66722 0.48736 -0.15000
C 	C 	0.66190 0.66835 0.49170 0.22400
C 	C 	0.62291 0.73385 0.47910 -0.31000
C 	C 	0.53823 0.73538 0.48359 0.21000
C 	C 	0.52807 0.61237 0.51099 0.17400
C 	C 	0.61170 0.60634 0.50775 -0.28700
C 	C 	0.93607 0.57478 0.55072 -0.18600
C 	C 	0.02119 0.58158 0.54699 0.10900
N 	N 	0.93867 0.37381 0.49922 -0.26500
N 	N 	0.50949 0.32408 0.50069 -0.29400
N 	N 	0.93867 0.87381 0.00078 -0.26300
N 	N 	0.50949 0.82408 0.99931 -0.29400
N 	N 	0.06133 0.12619 0.99922 -0.26300
N 	N 	0.49051 0.17592 0.00069 -0.29400
N 	N 	0.06133 0.62619 0.50078 -0.26500
N 	N 	0.49051 0.67592 0.49931 -0.29400
O 	O 	0.64701 0.41462 0.56994 -0.45500
O 	O 	0.78319 0.41233 0.59103 -0.46000
O 	O 	0.80434 0.76161 0.94138 -0.45300
O 	O 	0.66743 0.75930 0.92152 -0.46200
O 	O 	0.78037 0.44533 0.44100 -0.45700
O 	O 	0.64997 0.40350 0.42020 -0.46000
O 	O 	0.66772 0.75007 0.07086 -0.45700
O 	O 	0.79828 0.79387 0.08826 -0.45300
O 	O 	0.64701 0.91462 0.93006 -0.45500
O 	O 	0.78319 0.91233 0.90897 -0.46000
O 	O 	0.80434 0.26161 0.55862 -0.45300
O 	O 	0.66743 0.25930 0.57848 -0.46200
O 	O 	0.78037 0.94533 0.05900 -0.45600
O 	O 	0.64997 0.90350 0.07980 -0.46000
O 	O 	0.66772 0.25007 0.42914 -0.45700
O 	O 	0.79828 0.29387 0.41174 -0.45400
O 	O 	0.35299 0.08538 0.06994 -0.45500
O 	O 	0.21681 0.08767 0.09103 -0.46000
O 	O 	0.19566 0.73839 0.44138 -0.45300
O 	O 	0.33257 0.74070 0.42152 -0.46200
O 	O 	0.21963 0.05467 0.94100 -0.45600
O 	O 	0.35003 0.09650 0.92020 -0.46000
O 	O 	0.33228 0.74993 0.57086 -0.45700
O 	O 	0.20172 0.70613 0.58826 -0.45400
O 	O 	0.35299 0.58538 0.43006 -0.45500
O 	O 	0.21681 0.58767 0.40897 -0.46000
O 	O 	0.19566 0.23839 0.05862 -0.45300
O 	O 	0.33257 0.24070 0.07848 -0.46200
O 	O 	0.21963 0.55467 0.55900 -0.45700
O 	O 	0.35003 0.59650 0.57980 -0.46000
O 	O 	0.33228 0.24993 0.92914 -0.45700
O 	O 	0.20172 0.20613 0.91174 -0.45300
