data_crystal

_cell_length_a 11.25300
_cell_length_b 18.17200
_cell_length_c 25.16100
_cell_angle_alpha 90.00000
_cell_angle_beta  90.00000
_cell_angle_gamma 90.00000

_symmetry_space_group_name_	'P 1'
_symmetry_space_group_name_H-M	'P 1'

loop_
_symmetry_equiv_pos_as_xyz
  x,y,z

loop_
_atom_site_label
_atom_site_type_symbol
_atom_site_fract_x
_atom_site_fract_y
_atom_site_fract_z
_atom_site_charge
Zn	Zn	0.62027 0.92641 0.02537 1.22600
Zn	Zn	0.37973 0.92641 0.47463 1.22700
Zn	Zn	0.62027 0.57359 0.97463 1.22700
Zn	Zn	0.37973 0.57359 0.52537 1.22700
Zn	Zn	0.37973 0.07359 0.97463 1.22600
Zn	Zn	0.62027 0.07359 0.52537 1.22600
Zn	Zn	0.37973 0.42641 0.02537 1.22600
Zn	Zn	0.62027 0.42641 0.47463 1.22600
Zn	Zn	0.00000 0.70985 0.75000 1.17300
Zn	Zn	0.00000 0.79015 0.25000 1.17300
Zn	Zn	0.00000 0.29015 0.25000 1.17300
Zn	Zn	0.00000 0.20985 0.75000 1.17300
H 	H 	0.51010 0.79280 0.94870 0.01000
H 	H 	0.29510 0.68710 0.84800 0.02000
H 	H 	0.27480 0.90600 0.86080 0.01400
H 	H 	0.73550 0.98510 0.92190 0.09600
H 	H 	0.87310 0.01710 0.85700 0.00100
H 	H 	0.07270 0.98890 0.86750 0.06900
H 	H 	0.14060 0.92800 0.94110 0.07800
H 	H 	0.95260 0.86940 0.14020 0.00800
H 	H 	0.73450 0.75020 0.04920 0.02500
H 	H 	0.70920 0.67110 0.11980 0.08100
H 	H 	0.81030 0.69140 0.19750 0.01400
H 	H 	0.16350 0.86550 0.02430 0.05900
H 	H 	0.10150 0.84900 0.07880 0.05000
H 	H 	0.03560 0.73470 0.04580 0.04800
H 	H 	0.17460 0.73920 0.04510 0.06000
H 	H 	0.48990 0.79280 0.55130 0.01200
H 	H 	0.70490 0.68710 0.65200 0.02900
H 	H 	0.72520 0.90600 0.63920 0.01900
H 	H 	0.26450 0.98510 0.57810 0.06200
H 	H 	0.12690 0.01710 0.64300 0.05600
H 	H 	0.92730 0.98890 0.63250 0.02200
H 	H 	0.85940 0.92800 0.55890 0.06100
H 	H 	0.04740 0.86940 0.35980 -0.02900
H 	H 	0.26550 0.75020 0.45080 0.02100
H 	H 	0.29080 0.67110 0.38020 0.08000
H 	H 	0.18970 0.69140 0.30250 0.00400
H 	H 	0.83650 0.86550 0.47570 0.03700
H 	H 	0.89850 0.84900 0.42120 0.04500
H 	H 	0.96440 0.73470 0.45420 0.10500
H 	H 	0.82540 0.73920 0.45490 0.07400
H 	H 	0.51010 0.70720 0.05130 0.01000
H 	H 	0.29510 0.81290 0.15200 0.02000
H 	H 	0.27480 0.59400 0.13920 0.01300
H 	H 	0.73550 0.51490 0.07810 0.09400
H 	H 	0.87310 0.48290 0.14300 0.00400
H 	H 	0.07270 0.51110 0.13250 0.06800
H 	H 	0.14060 0.57200 0.05890 0.07800
H 	H 	0.95260 0.63060 0.85980 0.00900
H 	H 	0.73450 0.74980 0.95080 0.02600
H 	H 	0.70920 0.82890 0.88020 0.08100
H 	H 	0.81030 0.80860 0.80250 0.01400
H 	H 	0.16350 0.63450 0.97570 0.06100
H 	H 	0.10150 0.65100 0.92120 0.05100
H 	H 	0.03560 0.76530 0.95420 0.04700
H 	H 	0.17460 0.76080 0.95490 0.05800
H 	H 	0.48990 0.70720 0.44870 0.01100
H 	H 	0.70490 0.81290 0.34800 0.02900
H 	H 	0.72520 0.59400 0.36080 0.01900
H 	H 	0.26450 0.51490 0.42190 0.06100
H 	H 	0.12690 0.48290 0.35700 0.05800
H 	H 	0.92730 0.51110 0.36750 0.02100
H 	H 	0.85940 0.57200 0.44110 0.06100
H 	H 	0.04740 0.63060 0.64020 -0.02900
H 	H 	0.26550 0.74980 0.54920 0.02100
H 	H 	0.29080 0.82890 0.61980 0.08000
H 	H 	0.18970 0.80860 0.69750 0.00400
H 	H 	0.83650 0.63450 0.52430 0.03700
H 	H 	0.89850 0.65100 0.57880 0.04500
H 	H 	0.96440 0.76530 0.54580 0.10500
H 	H 	0.82540 0.76080 0.54510 0.07400
H 	H 	0.48990 0.20720 0.05130 0.01200
H 	H 	0.70490 0.31290 0.15200 0.02900
H 	H 	0.72520 0.09400 0.13920 0.02000
H 	H 	0.26450 0.01490 0.07810 0.06400
H 	H 	0.12690 0.98290 0.14300 0.05400
H 	H 	0.92730 0.01110 0.13250 0.02300
H 	H 	0.85940 0.07200 0.05890 0.06100
H 	H 	0.04740 0.13060 0.85980 -0.02900
H 	H 	0.26550 0.24980 0.95080 0.02100
H 	H 	0.29080 0.32890 0.88020 0.08000
H 	H 	0.18970 0.30860 0.80250 0.00400
H 	H 	0.83650 0.13450 0.97570 0.03600
H 	H 	0.89850 0.15100 0.92120 0.04400
H 	H 	0.96440 0.26530 0.95420 0.10600
H 	H 	0.82540 0.26080 0.95490 0.07500
H 	H 	0.51010 0.20720 0.44870 0.01000
H 	H 	0.29510 0.31290 0.34800 0.02000
H 	H 	0.27480 0.09400 0.36080 0.01300
H 	H 	0.73550 0.01490 0.42190 0.09500
H 	H 	0.87310 0.98290 0.35700 0.00300
H 	H 	0.07270 0.01110 0.36750 0.06800
H 	H 	0.14060 0.07200 0.44110 0.07800
H 	H 	0.95260 0.13060 0.64020 0.00800
H 	H 	0.73450 0.24980 0.54920 0.02600
H 	H 	0.70920 0.32890 0.61980 0.08100
H 	H 	0.81030 0.30860 0.69750 0.01400
H 	H 	0.16350 0.13450 0.52430 0.06100
H 	H 	0.10150 0.15100 0.57880 0.05000
H 	H 	0.03560 0.26530 0.54580 0.04700
H 	H 	0.17460 0.26080 0.54510 0.05900
H 	H 	0.48990 0.29280 0.94870 0.01100
H 	H 	0.70490 0.18710 0.84800 0.02900
H 	H 	0.72520 0.40600 0.86080 0.01900
H 	H 	0.26450 0.48510 0.92190 0.06100
H 	H 	0.12690 0.51710 0.85700 0.05800
H 	H 	0.92730 0.48890 0.86750 0.02100
H 	H 	0.85940 0.42800 0.94110 0.06100
H 	H 	0.04740 0.36940 0.14020 -0.02900
H 	H 	0.26550 0.25020 0.04920 0.02200
H 	H 	0.29080 0.17110 0.11980 0.08100
H 	H 	0.18970 0.19140 0.19750 0.00400
H 	H 	0.83650 0.36550 0.02430 0.03700
H 	H 	0.89850 0.34900 0.07880 0.04600
H 	H 	0.96440 0.23470 0.04580 0.10500
H 	H 	0.82540 0.23920 0.04510 0.07300
H 	H 	0.51010 0.29280 0.55130 0.01000
H 	H 	0.29510 0.18710 0.65200 0.02000
H 	H 	0.27480 0.40600 0.63920 0.01300
H 	H 	0.73550 0.48510 0.57810 0.09500
H 	H 	0.87310 0.51710 0.64300 0.00400
H 	H 	0.07270 0.48890 0.63250 0.06800
H 	H 	0.14060 0.42800 0.55890 0.07800
H 	H 	0.95260 0.36940 0.35980 0.00900
H 	H 	0.73450 0.25020 0.45080 0.02600
H 	H 	0.70920 0.17110 0.38020 0.08100
H 	H 	0.81030 0.19140 0.30250 0.01400
H 	H 	0.16350 0.36550 0.47570 0.06100
H 	H 	0.10150 0.34900 0.42120 0.05000
H 	H 	0.03560 0.23470 0.45420 0.04700
H 	H 	0.17460 0.23920 0.45490 0.05900
C 	C 	0.43640 0.92920 0.93640 0.43600
C 	C 	0.39770 0.86070 0.90890 -0.18500
C 	C 	0.44940 0.79370 0.92360 0.10300
C 	C 	0.41060 0.72940 0.90110 -0.16200
C 	C 	0.32140 0.73090 0.86310 0.09000
C 	C 	0.27120 0.79690 0.84730 -0.16000
C 	C 	0.30910 0.86150 0.87070 0.10500
C 	C 	0.17270 0.79630 0.80670 0.38100
C 	C 	0.46380 0.65770 0.91800 0.38600
C 	C 	0.85580 0.93230 0.96870 0.06800
C 	C 	0.81510 0.97220 0.92530 -0.16600
C 	C 	0.89780 0.99200 0.88720 0.12400
C 	C 	0.01910 0.97460 0.89370 -0.13300
C 	C 	0.06010 0.93780 0.93680 -0.12500
C 	C 	0.97610 0.91500 0.97440 0.12400
C 	C 	0.87410 0.86660 0.04081 0.12500
C 	C 	0.84920 0.81910 0.08710 -0.07500
C 	C 	0.90370 0.82870 0.13550 0.05900
C 	C 	0.77390 0.75840 0.08110 0.02700
C 	C 	0.75940 0.71150 0.12280 -0.11200
C 	C 	0.81950 0.72450 0.16960 0.07900
C 	C 	0.09620 0.84120 0.04070 -0.10100
C 	C 	0.10280 0.75890 0.02920 -0.09300
C 	C 	0.56360 0.92920 0.56360 0.43500
C 	C 	0.60230 0.86070 0.59110 -0.18000
C 	C 	0.55060 0.79370 0.57640 0.09800
C 	C 	0.58940 0.72940 0.59890 -0.15600
C 	C 	0.67860 0.73090 0.63690 0.08200
C 	C 	0.72880 0.79690 0.65270 -0.14600
C 	C 	0.69090 0.86150 0.62930 0.09900
C 	C 	0.82730 0.79630 0.69330 0.37300
C 	C 	0.53620 0.65770 0.58200 0.38500
C 	C 	0.14420 0.93230 0.53130 0.05000
C 	C 	0.18490 0.97220 0.57470 -0.08100
C 	C 	0.10220 0.99200 0.61280 -0.11800
C 	C 	0.98090 0.97460 0.60630 0.06800
C 	C 	0.93990 0.93780 0.56320 -0.04000
C 	C 	0.02390 0.91500 0.52560 -0.01200
C 	C 	0.12590 0.86660 0.45919 0.11800
C 	C 	0.15080 0.81910 0.41290 -0.10100
C 	C 	0.09630 0.82870 0.36450 0.04800
C 	C 	0.22610 0.75840 0.41890 0.02500
C 	C 	0.24060 0.71150 0.37720 -0.12200
C 	C 	0.18050 0.72450 0.33040 0.06800
C 	C 	0.90380 0.84120 0.45930 0.02600
C 	C 	0.89720 0.75890 0.47080 -0.12200
C 	C 	0.43640 0.57080 0.06360 0.43600
C 	C 	0.39770 0.63930 0.09110 -0.18600
C 	C 	0.44940 0.70630 0.07640 0.10300
C 	C 	0.41060 0.77060 0.09890 -0.16200
C 	C 	0.32140 0.76910 0.13690 0.09100
C 	C 	0.27120 0.70310 0.15270 -0.16000
C 	C 	0.30910 0.63850 0.12930 0.10500
C 	C 	0.17270 0.70370 0.19330 0.38100
C 	C 	0.46380 0.84230 0.08200 0.38600
C 	C 	0.85580 0.56770 0.03130 0.06500
C 	C 	0.81510 0.52780 0.07470 -0.16300
C 	C 	0.89780 0.50800 0.11280 0.12000
C 	C 	0.01910 0.52540 0.10630 -0.13100
C 	C 	0.06010 0.56220 0.06320 -0.12700
C 	C 	0.97610 0.58500 0.02560 0.12400
C 	C 	0.87410 0.63340 0.95919 0.12500
C 	C 	0.84920 0.68090 0.91290 -0.07500
C 	C 	0.90370 0.67130 0.86450 0.05900
C 	C 	0.77390 0.74160 0.91890 0.02600
C 	C 	0.75940 0.78850 0.87720 -0.11100
C 	C 	0.81950 0.77550 0.83040 0.07900
C 	C 	0.09620 0.65880 0.95930 -0.10500
C 	C 	0.10280 0.74110 0.97080 -0.08600
C 	C 	0.56360 0.57080 0.43640 0.43500
C 	C 	0.60230 0.63930 0.40890 -0.18000
C 	C 	0.55060 0.70630 0.42360 0.09800
C 	C 	0.58940 0.77060 0.40110 -0.15600
C 	C 	0.67860 0.76910 0.36310 0.08200
C 	C 	0.72880 0.70310 0.34730 -0.14600
C 	C 	0.69090 0.63850 0.37070 0.09900
C 	C 	0.82730 0.70370 0.30670 0.37300
C 	C 	0.53620 0.84230 0.41800 0.38500
C 	C 	0.14420 0.56770 0.46870 0.04900
C 	C 	0.18490 0.52780 0.42530 -0.07900
C 	C 	0.10220 0.50800 0.38720 -0.12200
C 	C 	0.98090 0.52540 0.39370 0.07100
C 	C 	0.93990 0.56220 0.43680 -0.04100
C 	C 	0.02390 0.58500 0.47440 -0.01100
C 	C 	0.12590 0.63340 0.54081 0.11800
C 	C 	0.15080 0.68090 0.58710 -0.10100
C 	C 	0.09630 0.67130 0.63550 0.04900
C 	C 	0.22610 0.74160 0.58110 0.02500
C 	C 	0.24060 0.78850 0.62280 -0.12200
C 	C 	0.18050 0.77550 0.66960 0.06800
C 	C 	0.90380 0.65880 0.54070 0.02600
C 	C 	0.89720 0.74110 0.52920 -0.12200
C 	C 	0.56360 0.07080 0.06360 0.43500
C 	C 	0.60230 0.13930 0.09110 -0.18000
C 	C 	0.55060 0.20630 0.07640 0.09800
C 	C 	0.58940 0.27060 0.09890 -0.15600
C 	C 	0.67860 0.26910 0.13690 0.08200
C 	C 	0.72880 0.20310 0.15270 -0.14600
C 	C 	0.69090 0.13850 0.12930 0.09800
C 	C 	0.82730 0.20370 0.19330 0.37300
C 	C 	0.53620 0.34230 0.08200 0.38400
C 	C 	0.14420 0.06770 0.03130 0.05300
C 	C 	0.18490 0.02780 0.07470 -0.08400
C 	C 	0.10220 0.00800 0.11280 -0.11300
C 	C 	0.98090 0.02540 0.10630 0.06600
C 	C 	0.93990 0.06220 0.06320 -0.03900
C 	C 	0.02390 0.08500 0.02560 -0.01100
C 	C 	0.12590 0.13340 0.95919 0.11700
C 	C 	0.15080 0.18090 0.91290 -0.10100
C 	C 	0.09630 0.17130 0.86450 0.04900
C 	C 	0.22610 0.24160 0.91890 0.02500
C 	C 	0.24060 0.28850 0.87720 -0.12200
C 	C 	0.18050 0.27550 0.83040 0.06800
C 	C 	0.90380 0.15880 0.95930 0.02700
C 	C 	0.89720 0.24110 0.97080 -0.12500
C 	C 	0.43640 0.07080 0.43640 0.43600
C 	C 	0.39770 0.13930 0.40890 -0.18500
C 	C 	0.44940 0.20630 0.42360 0.10300
C 	C 	0.41060 0.27060 0.40110 -0.16200
C 	C 	0.32140 0.26910 0.36310 0.09100
C 	C 	0.27120 0.20310 0.34730 -0.16000
C 	C 	0.30910 0.13850 0.37070 0.10500
C 	C 	0.17270 0.20370 0.30670 0.38100
C 	C 	0.46380 0.34230 0.41800 0.38600
C 	C 	0.85580 0.06770 0.46870 0.06500
C 	C 	0.81510 0.02780 0.42530 -0.16300
C 	C 	0.89780 0.00800 0.38720 0.12100
C 	C 	0.01910 0.02540 0.39370 -0.13100
C 	C 	0.06010 0.06220 0.43680 -0.12700
C 	C 	0.97610 0.08500 0.47440 0.12400
C 	C 	0.87410 0.13340 0.54081 0.12500
C 	C 	0.84920 0.18090 0.58710 -0.07500
C 	C 	0.90370 0.17130 0.63550 0.05900
C 	C 	0.77390 0.24160 0.58110 0.02700
C 	C 	0.75940 0.28850 0.62280 -0.11200
C 	C 	0.81950 0.27550 0.66960 0.07900
C 	C 	0.09620 0.15880 0.54070 -0.10300
C 	C 	0.10280 0.24110 0.52920 -0.08900
C 	C 	0.56360 0.42920 0.93640 0.43500
C 	C 	0.60230 0.36070 0.90890 -0.18000
C 	C 	0.55060 0.29370 0.92360 0.09800
C 	C 	0.58940 0.22940 0.90110 -0.15700
C 	C 	0.67860 0.23090 0.86310 0.08300
C 	C 	0.72880 0.29690 0.84730 -0.14600
C 	C 	0.69090 0.36150 0.87070 0.09900
C 	C 	0.82730 0.29630 0.80670 0.37300
C 	C 	0.53620 0.15770 0.91800 0.38500
C 	C 	0.14420 0.43230 0.96870 0.04900
C 	C 	0.18490 0.47220 0.92530 -0.07900
C 	C 	0.10220 0.49200 0.88720 -0.12100
C 	C 	0.98090 0.47460 0.89370 0.07100
C 	C 	0.93990 0.43780 0.93680 -0.04100
C 	C 	0.02390 0.41500 0.97440 -0.01100
C 	C 	0.12590 0.36660 0.04081 0.11800
C 	C 	0.15080 0.31910 0.08710 -0.10100
C 	C 	0.09630 0.32870 0.13550 0.04800
C 	C 	0.22610 0.25840 0.08110 0.02500
C 	C 	0.24060 0.21150 0.12280 -0.12200
C 	C 	0.18050 0.22450 0.16960 0.06800
C 	C 	0.90380 0.34120 0.04070 0.02400
C 	C 	0.89720 0.25890 0.02920 -0.11900
C 	C 	0.43640 0.42920 0.56360 0.43600
C 	C 	0.39770 0.36070 0.59110 -0.18500
C 	C 	0.44940 0.29370 0.57640 0.10300
C 	C 	0.41060 0.22940 0.59890 -0.16200
C 	C 	0.32140 0.23090 0.63690 0.09100
C 	C 	0.27120 0.29690 0.65270 -0.16000
C 	C 	0.30910 0.36150 0.62930 0.10500
C 	C 	0.17270 0.29630 0.69330 0.38100
C 	C 	0.46380 0.15770 0.58200 0.38600
C 	C 	0.85580 0.43230 0.53130 0.06500
C 	C 	0.81510 0.47220 0.57470 -0.16300
C 	C 	0.89780 0.49200 0.61280 0.12000
C 	C 	0.01910 0.47460 0.60630 -0.13100
C 	C 	0.06010 0.43780 0.56320 -0.12700
C 	C 	0.97610 0.41500 0.52560 0.12500
C 	C 	0.87410 0.36660 0.45919 0.12500
C 	C 	0.84920 0.31910 0.41290 -0.07500
C 	C 	0.90370 0.32870 0.36450 0.05900
C 	C 	0.77390 0.25840 0.41890 0.02700
C 	C 	0.75940 0.21150 0.37720 -0.11200
C 	C 	0.81950 0.22450 0.33040 0.07900
C 	C 	0.09620 0.34120 0.45930 -0.10400
C 	C 	0.10280 0.25890 0.47080 -0.08900
N 	N 	0.79380 0.90098 0.01081 -0.26600
N 	N 	0.98560 0.87460 0.02083 -0.10400
N 	N 	0.88960 0.78180 0.17639 -0.21700
N 	N 	0.20620 0.90098 0.48919 -0.26200
N 	N 	0.01440 0.87460 0.47917 -0.15800
N 	N 	0.11040 0.78180 0.32361 -0.24200
N 	N 	0.79380 0.59902 0.98919 -0.26400
N 	N 	0.98560 0.62540 0.97917 -0.10200
N 	N 	0.88960 0.71820 0.82361 -0.21700
N 	N 	0.20620 0.59902 0.51081 -0.26200
N 	N 	0.01440 0.62540 0.52083 -0.15800
N 	N 	0.11040 0.71820 0.67639 -0.24200
N 	N 	0.20620 0.09902 0.98919 -0.26400
N 	N 	0.01440 0.12540 0.97917 -0.15900
N 	N 	0.11040 0.21820 0.82361 -0.24200
N 	N 	0.79380 0.09902 0.51081 -0.26400
N 	N 	0.98560 0.12540 0.52083 -0.10300
N 	N 	0.88960 0.21820 0.67639 -0.21700
N 	N 	0.20620 0.40098 0.01081 -0.26200
N 	N 	0.01440 0.37460 0.02083 -0.15800
N 	N 	0.11040 0.28180 0.17639 -0.24200
N 	N 	0.79380 0.40098 0.48919 -0.26400
N 	N 	0.98560 0.37460 0.47917 -0.10300
N 	N 	0.88960 0.28180 0.32361 -0.21700
O 	O 	0.53880 0.93325 0.95591 -0.50700
O 	O 	0.36060 0.98033 0.93875 -0.50000
O 	O 	0.13710 0.73300 0.79379 -0.50400
O 	O 	0.13510 0.85500 0.78827 -0.32000
O 	O 	0.42040 0.59920 0.90380 -0.32800
O 	O 	0.55240 0.66196 0.94777 -0.48600
O 	O 	0.46120 0.93325 0.54409 -0.50700
O 	O 	0.63940 0.98033 0.56125 -0.49900
O 	O 	0.86290 0.73300 0.70621 -0.46100
O 	O 	0.86490 0.85500 0.71173 -0.28000
O 	O 	0.57960 0.59920 0.59620 -0.32500
O 	O 	0.44760 0.66196 0.55223 -0.48500
O 	O 	0.53880 0.56675 0.04409 -0.50700
O 	O 	0.36060 0.51967 0.06125 -0.50100
O 	O 	0.13710 0.76700 0.20621 -0.50400
O 	O 	0.13510 0.64500 0.21173 -0.32000
O 	O 	0.42040 0.90080 0.09620 -0.32900
O 	O 	0.55240 0.83804 0.05223 -0.48600
O 	O 	0.46120 0.56675 0.45591 -0.50700
O 	O 	0.63940 0.51967 0.43875 -0.49900
O 	O 	0.86290 0.76700 0.29379 -0.46100
O 	O 	0.86490 0.64500 0.28827 -0.28000
O 	O 	0.57960 0.90080 0.40380 -0.32600
O 	O 	0.44760 0.83804 0.44777 -0.48500
O 	O 	0.46120 0.06675 0.04409 -0.50600
O 	O 	0.63940 0.01967 0.06125 -0.49800
O 	O 	0.86290 0.26700 0.20621 -0.46100
O 	O 	0.86490 0.14500 0.21173 -0.28000
O 	O 	0.57960 0.40080 0.09620 -0.32500
O 	O 	0.44760 0.33804 0.05223 -0.48500
O 	O 	0.53880 0.06675 0.45591 -0.50700
O 	O 	0.36060 0.01967 0.43875 -0.50100
O 	O 	0.13710 0.26700 0.29379 -0.50400
O 	O 	0.13510 0.14500 0.28827 -0.32000
O 	O 	0.42040 0.40080 0.40380 -0.32800
O 	O 	0.55240 0.33804 0.44777 -0.48600
O 	O 	0.46120 0.43325 0.95591 -0.50700
O 	O 	0.63940 0.48033 0.93875 -0.49900
O 	O 	0.86290 0.23300 0.79379 -0.46100
O 	O 	0.86490 0.35500 0.78827 -0.28000
O 	O 	0.57960 0.09920 0.90380 -0.32600
O 	O 	0.44760 0.16196 0.94777 -0.48600
O 	O 	0.53880 0.43325 0.54409 -0.50700
O 	O 	0.36060 0.48033 0.56125 -0.50100
O 	O 	0.13710 0.23300 0.70621 -0.50400
O 	O 	0.13510 0.35500 0.71173 -0.32000
O 	O 	0.42040 0.09920 0.59620 -0.32800
O 	O 	0.55240 0.16196 0.55223 -0.48600
