data_crystal

_cell_length_a 6.97410
_cell_length_b 21.79000
_cell_length_c 21.79000
_cell_angle_alpha 90.00000
_cell_angle_beta  90.00000
_cell_angle_gamma 90.00000

_symmetry_space_group_name_	'P 1'
_symmetry_space_group_name_H-M	'P 1'

loop_
_symmetry_equiv_pos_as_xyz
  x,y,z

loop_
_atom_site_label
_atom_site_type_symbol
_atom_site_fract_x
_atom_site_fract_y
_atom_site_fract_z
_atom_site_charge
Zn	Zn	0.06422 0.11863 0.13920 1.20500
Zn	Zn	0.56422 0.38137 0.86080 1.20600
Zn	Zn	0.31422 0.61080 0.36863 1.20600
Zn	Zn	0.81422 0.88920 0.63137 1.20600
Zn	Zn	0.56422 0.61863 0.63920 1.20600
Zn	Zn	0.06422 0.88137 0.36080 1.20600
Zn	Zn	0.81422 0.11080 0.86863 1.20600
Zn	Zn	0.31422 0.38920 0.13137 1.20600
Zn	Zn	0.93578 0.88137 0.86080 1.20500
Zn	Zn	0.43578 0.61863 0.13920 1.20600
Zn	Zn	0.68578 0.38920 0.63137 1.20600
Zn	Zn	0.18578 0.11080 0.36863 1.20600
Zn	Zn	0.43578 0.38137 0.36080 1.20500
Zn	Zn	0.93578 0.11863 0.63920 1.20500
Zn	Zn	0.18578 0.88920 0.13137 1.20500
Zn	Zn	0.68578 0.61080 0.86863 1.20500
H 	H 	0.41820 0.12230 0.11010 0.08500
H 	H 	0.91820 0.37770 0.88990 0.08400
H 	H 	0.66820 0.63990 0.37230 0.08500
H 	H 	0.16820 0.86010 0.62770 0.08500
H 	H 	0.91820 0.62230 0.61010 0.08500
H 	H 	0.41820 0.87770 0.38990 0.08500
H 	H 	0.16820 0.13990 0.87230 0.08500
H 	H 	0.66820 0.36010 0.12770 0.08500
H 	H 	0.58180 0.87770 0.88990 0.08500
H 	H 	0.08180 0.62230 0.11010 0.08400
H 	H 	0.33180 0.36010 0.62770 0.08500
H 	H 	0.83180 0.13990 0.37230 0.08500
H 	H 	0.08180 0.37770 0.38990 0.08500
H 	H 	0.58180 0.12230 0.61010 0.08500
H 	H 	0.83180 0.86010 0.12770 0.08500
H 	H 	0.33180 0.63990 0.87230 0.08500
H 	H 	0.41750 0.06210 0.21970 0.14500
H 	H 	0.91750 0.43790 0.78030 0.14600
H 	H 	0.66750 0.53030 0.31210 0.14500
H 	H 	0.16750 0.96970 0.68790 0.14600
H 	H 	0.91750 0.56210 0.71970 0.14600
H 	H 	0.41750 0.93790 0.28030 0.14500
H 	H 	0.16750 0.03030 0.81210 0.14600
H 	H 	0.66750 0.46970 0.18790 0.14500
H 	H 	0.58250 0.93790 0.78030 0.14500
H 	H 	0.08250 0.56210 0.21970 0.14600
H 	H 	0.33250 0.46970 0.68790 0.14500
H 	H 	0.83250 0.03030 0.31210 0.14600
H 	H 	0.08250 0.43790 0.28030 0.14600
H 	H 	0.58250 0.06210 0.71970 0.14500
H 	H 	0.83250 0.96970 0.18790 0.14600
H 	H 	0.33250 0.53030 0.81210 0.14500
H 	H 	0.56170 0.05270 0.16520 0.15800
H 	H 	0.06170 0.44730 0.83480 0.16000
H 	H 	0.81170 0.58480 0.30270 0.15800
H 	H 	0.31170 0.91520 0.69730 0.15800
H 	H 	0.06170 0.55270 0.66520 0.15900
H 	H 	0.56170 0.94730 0.33480 0.15800
H 	H 	0.31170 0.08480 0.80270 0.15800
H 	H 	0.81170 0.41520 0.19730 0.15800
H 	H 	0.43830 0.94730 0.83480 0.15800
H 	H 	0.93830 0.55270 0.16520 0.16000
H 	H 	0.18830 0.41520 0.69730 0.15800
H 	H 	0.68830 0.08480 0.30270 0.15800
H 	H 	0.93830 0.44730 0.33480 0.15900
H 	H 	0.43830 0.05270 0.66520 0.15800
H 	H 	0.68830 0.91520 0.19730 0.15800
H 	H 	0.18830 0.58480 0.80270 0.15800
H 	H 	0.48980 0.26490 0.17320 0.10300
H 	H 	0.98980 0.23510 0.82680 0.10100
H 	H 	0.73980 0.57680 0.51490 0.10300
H 	H 	0.23980 0.92320 0.48510 0.10300
H 	H 	0.98980 0.76490 0.67320 0.10100
H 	H 	0.48980 0.73510 0.32680 0.10300
H 	H 	0.23980 0.07680 0.01490 0.10000
H 	H 	0.73980 0.42320 0.98510 0.10200
H 	H 	0.51020 0.73510 0.82680 0.10300
H 	H 	0.01020 0.76490 0.17320 0.10100
H 	H 	0.26020 0.42320 0.48510 0.10300
H 	H 	0.76020 0.07680 0.51490 0.10300
H 	H 	0.01020 0.23510 0.32680 0.10100
H 	H 	0.51020 0.26490 0.67320 0.10300
H 	H 	0.76020 0.92320 0.98510 0.10000
H 	H 	0.26020 0.57680 0.01490 0.10200
H 	H 	0.47770 0.23000 0.11050 0.10000
H 	H 	0.97770 0.27000 0.88950 0.09900
H 	H 	0.72770 0.63950 0.48000 0.10000
H 	H 	0.22770 0.86050 0.52000 0.10000
H 	H 	0.97770 0.73000 0.61050 0.09900
H 	H 	0.47770 0.77000 0.38950 0.10000
H 	H 	0.22770 0.13950 0.98000 0.09900
H 	H 	0.72770 0.36050 0.02000 0.10000
H 	H 	0.52230 0.77000 0.88950 0.10000
H 	H 	0.02230 0.73000 0.11050 0.09900
H 	H 	0.27230 0.36050 0.52000 0.10000
H 	H 	0.77230 0.13950 0.48000 0.10000
H 	H 	0.02230 0.27000 0.38950 0.09900
H 	H 	0.52230 0.23000 0.61050 0.10000
H 	H 	0.77230 0.86050 0.02000 0.09900
H 	H 	0.27230 0.63950 0.98000 0.10000
H 	H 	0.58740 0.16540 0.19030 0.03700
H 	H 	0.08740 0.33460 0.80970 0.03900
H 	H 	0.83740 0.55970 0.41540 0.03600
H 	H 	0.33740 0.94030 0.58460 0.03600
H 	H 	0.08740 0.66540 0.69030 0.03900
H 	H 	0.58740 0.83460 0.30970 0.03700
H 	H 	0.33740 0.05970 0.91540 0.03700
H 	H 	0.83740 0.44030 0.08460 0.03700
H 	H 	0.41260 0.83460 0.80970 0.03700
H 	H 	0.91260 0.66540 0.19030 0.03900
H 	H 	0.16260 0.44030 0.58460 0.03600
H 	H 	0.66260 0.05970 0.41540 0.03600
H 	H 	0.91260 0.33460 0.30970 0.03900
H 	H 	0.41260 0.16540 0.69030 0.03700
H 	H 	0.66260 0.94030 0.08460 0.03700
H 	H 	0.16260 0.55970 0.91540 0.03700
H 	H 	0.39100 0.17420 0.22440 0.03100
H 	H 	0.89100 0.32580 0.77560 0.03200
H 	H 	0.64100 0.52560 0.42420 0.03100
H 	H 	0.14100 0.97440 0.57580 0.03100
H 	H 	0.89100 0.67420 0.72440 0.03200
H 	H 	0.39100 0.82580 0.27560 0.03100
H 	H 	0.14100 0.02560 0.92420 0.03200
H 	H 	0.64100 0.47440 0.07580 0.03100
H 	H 	0.60900 0.82580 0.77560 0.03100
H 	H 	0.10900 0.67420 0.22440 0.03200
H 	H 	0.35900 0.47440 0.57580 0.03100
H 	H 	0.85900 0.02560 0.42420 0.03100
H 	H 	0.10900 0.32580 0.27560 0.03200
H 	H 	0.60900 0.17420 0.72440 0.03100
H 	H 	0.85900 0.97440 0.07580 0.03200
H 	H 	0.35900 0.52560 0.92420 0.03100
C 	C 	0.30420 0.00917 0.15060 0.42200
C 	C 	0.80420 0.49083 0.84940 0.42300
C 	C 	0.55420 0.59940 0.25917 0.42200
C 	C 	0.05420 0.90060 0.74083 0.42700
C 	C 	0.80420 0.50917 0.65060 0.42300
C 	C 	0.30420 0.99083 0.34940 0.42200
C 	C 	0.05420 0.09940 0.75917 0.42700
C 	C 	0.55420 0.40060 0.24083 0.42200
C 	C 	0.69580 0.99083 0.84940 0.42200
C 	C 	0.19580 0.50917 0.15060 0.42300
C 	C 	0.44580 0.40060 0.74083 0.42200
C 	C 	0.94580 0.09940 0.25917 0.42700
C 	C 	0.19580 0.49083 0.34940 0.42300
C 	C 	0.69580 0.00917 0.65060 0.42200
C 	C 	0.94580 0.90060 0.24083 0.42700
C 	C 	0.44580 0.59940 0.75917 0.42200
C 	C 	0.21540 0.25208 0.14457 0.16400
C 	C 	0.71540 0.24792 0.85543 0.16400
C 	C 	0.46540 0.60543 0.50208 0.16500
C 	C 	0.96540 0.89457 0.49792 0.16500
C 	C 	0.71540 0.75208 0.64457 0.16400
C 	C 	0.21540 0.74792 0.35543 0.16400
C 	C 	0.96540 0.10543 0.00208 0.16400
C 	C 	0.46540 0.39457 0.99792 0.16400
C 	C 	0.78460 0.74792 0.85543 0.16400
C 	C 	0.28460 0.75208 0.14457 0.16400
C 	C 	0.53460 0.39457 0.49792 0.16500
C 	C 	0.03460 0.10543 0.50208 0.16500
C 	C 	0.28460 0.24792 0.35543 0.16400
C 	C 	0.78460 0.25208 0.64457 0.16400
C 	C 	0.03460 0.89457 0.99792 0.16400
C 	C 	0.53460 0.60543 0.00208 0.16400
C 	C 	0.42860 0.06051 0.17538 -0.36300
C 	C 	0.92860 0.43949 0.82462 -0.36700
C 	C 	0.67860 0.57462 0.31051 -0.36300
C 	C 	0.17860 0.92538 0.68949 -0.36400
C 	C 	0.92860 0.56051 0.67538 -0.36600
C 	C 	0.42860 0.93949 0.32462 -0.36300
C 	C 	0.17860 0.07462 0.81051 -0.36400
C 	C 	0.67860 0.42538 0.18949 -0.36300
C 	C 	0.57140 0.93949 0.82462 -0.36300
C 	C 	0.07140 0.56051 0.17538 -0.36700
C 	C 	0.32140 0.42538 0.68949 -0.36300
C 	C 	0.82140 0.07462 0.31051 -0.36400
C 	C 	0.07140 0.43949 0.32462 -0.36600
C 	C 	0.57140 0.06051 0.67538 -0.36300
C 	C 	0.82140 0.92538 0.18949 -0.36400
C 	C 	0.32140 0.57462 0.81051 -0.36300
C 	C 	0.42140 0.23301 0.15110 -0.29800
C 	C 	0.92140 0.26699 0.84890 -0.29400
C 	C 	0.67140 0.59890 0.48301 -0.29800
C 	C 	0.17140 0.90110 0.51699 -0.29800
C 	C 	0.92140 0.73301 0.65110 -0.29500
C 	C 	0.42140 0.76699 0.34890 -0.29800
C 	C 	0.17140 0.09890 0.98301 -0.29400
C 	C 	0.67140 0.40110 0.01699 -0.29700
C 	C 	0.57860 0.76699 0.84890 -0.29800
C 	C 	0.07860 0.73301 0.15110 -0.29400
C 	C 	0.32860 0.40110 0.51699 -0.29800
C 	C 	0.82860 0.09890 0.48301 -0.29800
C 	C 	0.07860 0.26699 0.34890 -0.29500
C 	C 	0.57860 0.23301 0.65110 -0.29800
C 	C 	0.82860 0.90110 0.01699 -0.29400
C 	C 	0.32860 0.59890 0.98301 -0.29700
C 	C 	0.45130 0.17231 0.18436 0.00800
C 	C 	0.95130 0.32769 0.81564 0.00200
C 	C 	0.70130 0.56564 0.42231 0.00800
C 	C 	0.20130 0.93436 0.57769 0.00800
C 	C 	0.95130 0.67231 0.68436 0.00300
C 	C 	0.45130 0.82769 0.31564 0.00800
C 	C 	0.20130 0.06564 0.92231 0.00600
C 	C 	0.70130 0.43436 0.07769 0.00800
C 	C 	0.54870 0.82769 0.81564 0.00800
C 	C 	0.04870 0.67231 0.18436 0.00200
C 	C 	0.29870 0.43436 0.57769 0.00800
C 	C 	0.79870 0.06564 0.42231 0.00800
C 	C 	0.04870 0.32769 0.31564 0.00300
C 	C 	0.54870 0.17231 0.68436 0.00800
C 	C 	0.79870 0.93436 0.07769 0.00600
C 	C 	0.29870 0.56564 0.92231 0.00800
N 	N 	0.15760 0.30983 0.13867 -0.24100
N 	N 	0.65760 0.19017 0.86133 -0.24000
N 	N 	0.40760 0.61133 0.55983 -0.24000
N 	N 	0.90760 0.88867 0.44017 -0.23900
N 	N 	0.65760 0.80983 0.63867 -0.24000
N 	N 	0.15760 0.69017 0.36133 -0.24000
N 	N 	0.90760 0.11133 0.05983 -0.23900
N 	N 	0.40760 0.38867 0.94017 -0.24000
N 	N 	0.84240 0.69017 0.86133 -0.24100
N 	N 	0.34240 0.80983 0.13867 -0.24000
N 	N 	0.59240 0.38867 0.44017 -0.24000
N 	N 	0.09240 0.11133 0.55983 -0.23900
N 	N 	0.34240 0.19017 0.36133 -0.24000
N 	N 	0.84240 0.30983 0.63867 -0.24000
N 	N 	0.09240 0.88867 0.94017 -0.23900
N 	N 	0.59240 0.61133 0.05983 -0.24000
N 	N 	0.36800 0.12027 0.14864 -0.22800
N 	N 	0.86800 0.37973 0.85136 -0.22600
N 	N 	0.61800 0.60136 0.37027 -0.22700
N 	N 	0.11800 0.89864 0.62973 -0.22700
N 	N 	0.86800 0.62027 0.64864 -0.22700
N 	N 	0.36800 0.87973 0.35136 -0.22800
N 	N 	0.11800 0.10136 0.87027 -0.22600
N 	N 	0.61800 0.39864 0.12973 -0.22700
N 	N 	0.63200 0.87973 0.85136 -0.22800
N 	N 	0.13200 0.62027 0.14864 -0.22600
N 	N 	0.38200 0.39864 0.62973 -0.22700
N 	N 	0.88200 0.10136 0.37027 -0.22700
N 	N 	0.13200 0.37973 0.35136 -0.22700
N 	N 	0.63200 0.12027 0.64864 -0.22800
N 	N 	0.88200 0.89864 0.12973 -0.22600
N 	N 	0.38200 0.60136 0.87027 -0.22700
N 	N 	0.06530 0.21429 0.14388 -0.23600
N 	N 	0.56530 0.28571 0.85612 -0.23500
N 	N 	0.31530 0.60612 0.46429 -0.23500
N 	N 	0.81530 0.89388 0.53571 -0.23500
N 	N 	0.56530 0.71429 0.64388 -0.23500
N 	N 	0.06530 0.78571 0.35612 -0.23600
N 	N 	0.81530 0.10612 0.96429 -0.23500
N 	N 	0.31530 0.39388 0.03571 -0.23500
N 	N 	0.93470 0.78571 0.85612 -0.23600
N 	N 	0.43470 0.71429 0.14388 -0.23500
N 	N 	0.68470 0.39388 0.53571 -0.23500
N 	N 	0.18470 0.10612 0.46429 -0.23500
N 	N 	0.43470 0.28571 0.35612 -0.23500
N 	N 	0.93470 0.21429 0.64388 -0.23600
N 	N 	0.18470 0.89388 0.03571 -0.23500
N 	N 	0.68470 0.60612 0.96429 -0.23500
N 	N 	0.90850 0.25042 0.13787 -0.06600
N 	N 	0.40850 0.24958 0.86213 -0.06700
N 	N 	0.15850 0.61213 0.50042 -0.06700
N 	N 	0.65850 0.88787 0.49958 -0.06700
N 	N 	0.40850 0.75042 0.63787 -0.06700
N 	N 	0.90850 0.74958 0.36213 -0.06600
N 	N 	0.65850 0.11213 0.00042 -0.06700
N 	N 	0.15850 0.38787 0.99958 -0.06700
N 	N 	0.09150 0.74958 0.86213 -0.06600
N 	N 	0.59150 0.75042 0.13787 -0.06700
N 	N 	0.84150 0.38787 0.49958 -0.06700
N 	N 	0.34150 0.11213 0.50042 -0.06700
N 	N 	0.59150 0.24958 0.36213 -0.06700
N 	N 	0.09150 0.25042 0.63787 -0.06600
N 	N 	0.34150 0.88787 0.99958 -0.06700
N 	N 	0.84150 0.61213 0.00042 -0.06700
N 	N 	0.96250 0.30753 0.13449 -0.06700
N 	N 	0.46250 0.19247 0.86551 -0.06800
N 	N 	0.21250 0.61551 0.55753 -0.06800
N 	N 	0.71250 0.88449 0.44247 -0.06800
N 	N 	0.46250 0.80753 0.63449 -0.06800
N 	N 	0.96250 0.69247 0.36551 -0.06700
N 	N 	0.71250 0.11551 0.05753 -0.06800
N 	N 	0.21250 0.38449 0.94247 -0.06700
N 	N 	0.03750 0.69247 0.86551 -0.06700
N 	N 	0.53750 0.80753 0.13449 -0.06800
N 	N 	0.78750 0.38449 0.44247 -0.06800
N 	N 	0.28750 0.11551 0.55753 -0.06800
N 	N 	0.53750 0.19247 0.36551 -0.06800
N 	N 	0.03750 0.30753 0.63449 -0.06700
N 	N 	0.28750 0.88449 0.94247 -0.06800
N 	N 	0.78750 0.61551 0.05753 -0.06700
O 	O 	0.36490 0.95559 0.15729 -0.48400
O 	O 	0.86490 0.54441 0.84271 -0.48500
O 	O 	0.61490 0.59271 0.20559 -0.48400
O 	O 	0.11490 0.90729 0.79441 -0.48400
O 	O 	0.86490 0.45559 0.65729 -0.48500
O 	O 	0.36490 0.04441 0.34271 -0.48400
O 	O 	0.11490 0.09271 0.70559 -0.48400
O 	O 	0.61490 0.40729 0.29441 -0.48400
O 	O 	0.63510 0.04441 0.84271 -0.48400
O 	O 	0.13510 0.45559 0.15729 -0.48500
O 	O 	0.38510 0.40729 0.79441 -0.48400
O 	O 	0.88510 0.09271 0.20559 -0.48400
O 	O 	0.13510 0.54441 0.34271 -0.48500
O 	O 	0.63510 0.95559 0.65729 -0.48400
O 	O 	0.88510 0.90729 0.29441 -0.48400
O 	O 	0.38510 0.59271 0.70559 -0.48400
O 	O 	0.14700 0.02236 0.12694 -0.47800
O 	O 	0.64700 0.47764 0.87306 -0.47700
O 	O 	0.39700 0.62306 0.27236 -0.47600
O 	O 	0.89700 0.87694 0.72764 -0.47900
O 	O 	0.64700 0.52236 0.62694 -0.47700
O 	O 	0.14700 0.97764 0.37306 -0.47700
O 	O 	0.89700 0.12306 0.77236 -0.47900
O 	O 	0.39700 0.37694 0.22764 -0.47600
O 	O 	0.85300 0.97764 0.87306 -0.47800
O 	O 	0.35300 0.52236 0.12694 -0.47700
O 	O 	0.60300 0.37694 0.72764 -0.47600
O 	O 	0.10300 0.12306 0.27236 -0.47900
O 	O 	0.35300 0.47764 0.37306 -0.47700
O 	O 	0.85300 0.02236 0.62694 -0.47700
O 	O 	0.10300 0.87694 0.22764 -0.47900
O 	O 	0.60300 0.62306 0.77236 -0.47600
