data_crystal

_cell_length_a 18.76660
_cell_length_b 18.76660
_cell_length_c 18.76660
_cell_angle_alpha 60.00000
_cell_angle_beta  60.00000
_cell_angle_gamma 60.00000

_symmetry_space_group_name_	'P 1'
_symmetry_space_group_name_H-M	'P 1'

loop_
_symmetry_equiv_pos_as_xyz
  x,y,z

loop_
_atom_site_label
_atom_site_type_symbol
_atom_site_fract_x
_atom_site_fract_y
_atom_site_fract_z
_atom_site_charge
Zn	Zn	0.50000 0.07916 0.50000 1.19900
Zn	Zn	0.07916 0.50000 0.92084 1.19900
Zn	Zn	0.50000 0.92084 0.50000 1.19900
Zn	Zn	0.92084 0.50000 0.07916 1.19900
Zn	Zn	0.50000 0.50000 0.92084 1.19900
Zn	Zn	0.07916 0.92084 0.50000 1.19900
Zn	Zn	0.50000 0.50000 0.07916 1.19800
Zn	Zn	0.92084 0.07916 0.50000 1.19800
Zn	Zn	0.50000 0.92084 0.07916 1.19800
Zn	Zn	0.07916 0.50000 0.50000 1.19800
Zn	Zn	0.50000 0.07916 0.92084 1.19800
Zn	Zn	0.92084 0.50000 0.50000 1.19800
H 	H 	0.77070 0.98750 0.47110 0.01700
H 	H 	0.98750 0.77070 0.77070 0.01800
H 	H 	0.47110 0.77070 0.77070 0.01900
H 	H 	0.77070 0.47110 0.98750 0.01700
H 	H 	0.77070 0.47110 0.77070 0.01900
H 	H 	0.98750 0.77070 0.47110 0.01700
H 	H 	0.47110 0.77070 0.98750 0.01700
H 	H 	0.77070 0.98750 0.77070 0.01800
H 	H 	0.77070 0.77070 0.98750 0.01800
H 	H 	0.98750 0.47110 0.77070 0.01700
H 	H 	0.47110 0.98750 0.77070 0.01700
H 	H 	0.77070 0.77070 0.47110 0.01900
H 	H 	0.01250 0.22930 0.52890 0.01700
H 	H 	0.22930 0.01250 0.22930 0.01800
H 	H 	0.22930 0.52890 0.22930 0.01900
H 	H 	0.52890 0.22930 0.01250 0.01700
H 	H 	0.52890 0.22930 0.22930 0.01900
H 	H 	0.22930 0.01250 0.52890 0.01700
H 	H 	0.22930 0.52890 0.01250 0.01700
H 	H 	0.01250 0.22930 0.22930 0.01800
H 	H 	0.22930 0.22930 0.01250 0.01800
H 	H 	0.52890 0.01250 0.22930 0.01700
H 	H 	0.01250 0.52890 0.22930 0.01700
H 	H 	0.22930 0.22930 0.52890 0.01900
C 	C 	0.66372 0.93020 0.47588 0.42500
C 	C 	0.75634 0.88570 0.47226 -0.16700
C 	C 	0.93020 0.66372 0.93020 0.40200
C 	C 	0.88570 0.75634 0.88570 -0.15900
C 	C 	0.47588 0.93020 0.66372 0.42500
C 	C 	0.47226 0.88570 0.75634 -0.16700
C 	C 	0.93020 0.47588 0.93020 0.41100
C 	C 	0.88570 0.47226 0.88570 -0.16400
C 	C 	0.66372 0.47588 0.93020 0.42500
C 	C 	0.75634 0.47226 0.88570 -0.16700
C 	C 	0.93020 0.93020 0.47588 0.41100
C 	C 	0.88570 0.88570 0.47226 -0.16400
C 	C 	0.47588 0.66372 0.93020 0.42500
C 	C 	0.47226 0.75634 0.88570 -0.16700
C 	C 	0.93020 0.93020 0.66372 0.40200
C 	C 	0.88570 0.88570 0.75634 -0.15900
C 	C 	0.66372 0.93020 0.93020 0.40200
C 	C 	0.75634 0.88570 0.88570 -0.15900
C 	C 	0.93020 0.47588 0.66372 0.42500
C 	C 	0.88570 0.47226 0.75634 -0.16700
C 	C 	0.47588 0.93020 0.93020 0.41100
C 	C 	0.47226 0.88570 0.88570 -0.16400
C 	C 	0.93020 0.66372 0.47588 0.42500
C 	C 	0.88570 0.75634 0.47226 -0.16700
C 	C 	0.06980 0.33628 0.52412 0.42500
C 	C 	0.11430 0.24366 0.52774 -0.16700
C 	C 	0.33628 0.06980 0.06980 0.40200
C 	C 	0.24366 0.11430 0.11430 -0.15900
C 	C 	0.06980 0.52412 0.33628 0.42500
C 	C 	0.11430 0.52774 0.24366 -0.16700
C 	C 	0.52412 0.06980 0.06980 0.41100
C 	C 	0.52774 0.11430 0.11430 -0.16400
C 	C 	0.52412 0.33628 0.06980 0.42500
C 	C 	0.52774 0.24366 0.11430 -0.16700
C 	C 	0.06980 0.06980 0.52412 0.41100
C 	C 	0.11430 0.11430 0.52774 -0.16400
C 	C 	0.33628 0.52412 0.06980 0.42500
C 	C 	0.24366 0.52774 0.11430 -0.16700
C 	C 	0.06980 0.06980 0.33628 0.40200
C 	C 	0.11430 0.11430 0.24366 -0.15900
C 	C 	0.06980 0.33628 0.06980 0.40200
C 	C 	0.11430 0.24366 0.11430 -0.15900
C 	C 	0.52412 0.06980 0.33628 0.42500
C 	C 	0.52774 0.11430 0.24366 -0.16700
C 	C 	0.06980 0.52412 0.06980 0.41100
C 	C 	0.11430 0.52774 0.11430 -0.16400
C 	C 	0.33628 0.06980 0.52412 0.42500
C 	C 	0.24366 0.11430 0.52774 -0.16700
C 	C 	0.79970 0.92878 0.47182 0.10000
C 	C 	0.92878 0.79970 0.79970 0.09200
C 	C 	0.47182 0.79970 0.79970 0.10200
C 	C 	0.79970 0.47182 0.92878 0.10000
C 	C 	0.79970 0.47182 0.79970 0.10200
C 	C 	0.92878 0.79970 0.47182 0.10000
C 	C 	0.47182 0.79970 0.92878 0.10000
C 	C 	0.79970 0.92878 0.79970 0.09200
C 	C 	0.79970 0.79970 0.92878 0.09200
C 	C 	0.92878 0.47182 0.79970 0.10000
C 	C 	0.47182 0.92878 0.79970 0.10000
C 	C 	0.79970 0.79970 0.47182 0.10200
C 	C 	0.07122 0.20030 0.52818 0.10000
C 	C 	0.20030 0.07122 0.20030 0.09200
C 	C 	0.20030 0.52818 0.20030 0.10200
C 	C 	0.52818 0.20030 0.07122 0.10000
C 	C 	0.52818 0.20030 0.20030 0.10200
C 	C 	0.20030 0.07122 0.52818 0.10000
C 	C 	0.20030 0.52818 0.07122 0.10000
C 	C 	0.07122 0.20030 0.20030 0.09200
C 	C 	0.20030 0.20030 0.07122 0.09200
C 	C 	0.52818 0.07122 0.20030 0.10000
C 	C 	0.07122 0.52818 0.20030 0.10000
C 	C 	0.20030 0.20030 0.52818 0.10200
O 	O 	0.62795 0.00639 0.47841 -0.48700
O 	O 	0.00639 0.62795 0.88725 -0.47700
O 	O 	0.47841 0.88725 0.62795 -0.48900
O 	O 	0.88725 0.47841 0.00639 -0.48100
O 	O 	0.62795 0.47841 0.88725 -0.48900
O 	O 	0.00639 0.88725 0.47841 -0.48100
O 	O 	0.47841 0.62795 0.00639 -0.48700
O 	O 	0.88725 0.00639 0.62795 -0.47700
O 	O 	0.62795 0.88725 0.00639 -0.47700
O 	O 	0.00639 0.47841 0.62795 -0.48700
O 	O 	0.47841 0.00639 0.88725 -0.48100
O 	O 	0.88725 0.62795 0.47841 -0.48900
O 	O 	0.99361 0.37205 0.52159 -0.48700
O 	O 	0.37205 0.99361 0.11275 -0.47700
O 	O 	0.11275 0.52159 0.37205 -0.48900
O 	O 	0.52159 0.11275 0.99361 -0.48100
O 	O 	0.52159 0.37205 0.11275 -0.48900
O 	O 	0.11275 0.99361 0.52159 -0.48100
O 	O 	0.37205 0.52159 0.99361 -0.48700
O 	O 	0.99361 0.11275 0.37205 -0.47700
O 	O 	0.11275 0.37205 0.99361 -0.47700
O 	O 	0.52159 0.99361 0.37205 -0.48700
O 	O 	0.99361 0.52159 0.11275 -0.48100
O 	O 	0.37205 0.11275 0.52159 -0.48900
O 	O 	0.37205 0.99361 0.52159 -0.48700
O 	O 	0.99361 0.37205 0.11275 -0.47700
O 	O 	0.52159 0.11275 0.37205 -0.48900
O 	O 	0.11275 0.52159 0.99361 -0.48100
O 	O 	0.37205 0.52159 0.11275 -0.48900
O 	O 	0.99361 0.11275 0.52159 -0.48100
O 	O 	0.52159 0.37205 0.99361 -0.48700
O 	O 	0.11275 0.99361 0.37205 -0.47700
O 	O 	0.37205 0.11275 0.99361 -0.47700
O 	O 	0.99361 0.52159 0.37205 -0.48700
O 	O 	0.52159 0.99361 0.11275 -0.48100
O 	O 	0.11275 0.37205 0.52159 -0.48900
O 	O 	0.00639 0.62795 0.47841 -0.48700
O 	O 	0.62795 0.00639 0.88725 -0.47700
O 	O 	0.88725 0.47841 0.62795 -0.48900
O 	O 	0.47841 0.88725 0.00639 -0.48100
O 	O 	0.47841 0.62795 0.88725 -0.48900
O 	O 	0.88725 0.00639 0.47841 -0.48100
O 	O 	0.62795 0.47841 0.00639 -0.48700
O 	O 	0.00639 0.88725 0.62795 -0.47700
O 	O 	0.88725 0.62795 0.00639 -0.47700
O 	O 	0.47841 0.00639 0.62795 -0.48700
O 	O 	0.00639 0.47841 0.88725 -0.48100
O 	O 	0.62795 0.88725 0.47841 -0.48900
