data_crystal

_cell_length_a 6.85300
_cell_length_b 9.00700
_cell_length_c 9.98700
_cell_angle_alpha 102.13000
_cell_angle_beta  100.53000
_cell_angle_gamma 110.21000

_symmetry_space_group_name_	'P 1'
_symmetry_space_group_name_H-M	'P 1'

loop_
_symmetry_equiv_pos_as_xyz
  x,y,z

loop_
_atom_site_label
_atom_site_type_symbol
_atom_site_fract_x
_atom_site_fract_y
_atom_site_fract_z
_atom_site_charge
Ca	Ca	0.68520 0.41532 0.39009 1.50800
Ca	Ca	0.31480 0.58468 0.60991 1.50800
H 	H 	0.49480 0.22910 0.04160 0.33600
H 	H 	0.70440 0.49120 0.90930 0.02100
H 	H 	0.12670 0.88480 0.24310 0.01700
H 	H 	0.15590 0.87580 0.83850 0.01300
H 	H 	0.50520 0.77090 0.95840 0.33600
H 	H 	0.29560 0.50880 0.09070 0.02100
H 	H 	0.87330 0.11520 0.75690 0.01700
H 	H 	0.84410 0.12420 0.16150 0.01300
C 	C 	0.91530 0.67230 0.85070 -0.18600
C 	C 	0.82260 0.59630 0.94500 0.09500
C 	C 	0.90370 0.67450 0.09150 -0.13100
C 	C 	0.07380 0.83010 0.14350 0.09400
C 	C 	0.16650 0.90560 0.04920 -0.16200
C 	C 	0.08960 0.82570 0.90240 0.10700
C 	C 	0.83220 0.58980 0.69330 0.42200
C 	C 	0.80630 0.59140 0.19310 0.33400
C 	C 	0.34420 0.07420 0.10580 0.47000
C 	C 	0.08470 0.32770 0.14930 -0.18600
C 	C 	0.17740 0.40370 0.05500 0.09500
C 	C 	0.09630 0.32550 0.90850 -0.13100
C 	C 	0.92620 0.16990 0.85650 0.09400
C 	C 	0.83350 0.09440 0.95080 -0.16200
C 	C 	0.91040 0.17430 0.09760 0.10700
C 	C 	0.16780 0.41020 0.30670 0.42200
C 	C 	0.19370 0.40860 0.80690 0.33400
C 	C 	0.65580 0.92580 0.89420 0.47000
O 	O 	0.96690 0.59150 0.62230 -0.56400
O 	O 	0.63130 0.52090 0.63470 -0.55600
O 	O 	0.67450 0.44220 0.14700 -0.40600
O 	O 	0.85980 0.67220 0.32360 -0.39300
O 	O 	0.40630 0.13660 0.00510 -0.54300
O 	O 	0.42170 0.14750 0.23310 -0.47600
O 	O 	0.03310 0.40850 0.37770 -0.56400
O 	O 	0.36870 0.47910 0.36530 -0.55600
O 	O 	0.32550 0.55780 0.85300 -0.40600
O 	O 	0.14020 0.32780 0.67640 -0.39300
O 	O 	0.59370 0.86340 0.99490 -0.54300
O 	O 	0.57830 0.85250 0.76690 -0.47600
