data_crystal

_cell_length_a 13.17700
_cell_length_b 13.22690
_cell_length_c 13.22690
_cell_angle_alpha 88.43510
_cell_angle_beta  79.87130
_cell_angle_gamma 79.87100

_symmetry_space_group_name_	'P 1'
_symmetry_space_group_name_H-M	'P 1'

loop_
_symmetry_equiv_pos_as_xyz
  x,y,z

loop_
_atom_site_label
_atom_site_type_symbol
_atom_site_fract_x
_atom_site_fract_y
_atom_site_fract_z
_atom_site_charge
Zn	Zn	0.00373 0.29247 0.36323 1.23200
Zn	Zn	0.19129 0.38900 0.23598 1.21500
Zn	Zn	0.50373 0.36323 0.29247 1.23500
Zn	Zn	0.69129 0.23598 0.38900 1.21500
H 	H 	0.49200 0.79160 0.99740 0.04900
H 	H 	0.45780 0.87080 0.91340 0.03500
H 	H 	0.63020 0.97950 0.87030 0.02800
H 	H 	0.58720 0.93360 0.78120 0.03200
H 	H 	0.61950 0.67170 0.87010 0.03600
H 	H 	0.69920 0.71720 0.78620 0.03700
H 	H 	0.70460 0.86130 0.99990 0.03900
H 	H 	0.76960 0.77840 0.91960 0.03100
H 	H 	0.31410 0.90900 0.03200 0.15700
H 	H 	0.49540 0.07820 0.14300 0.16300
H 	H 	0.16800 0.01270 0.12130 -0.02700
H 	H 	0.35120 0.17820 0.23060 -0.04300
H 	H 	0.64130 0.08200 0.72380 0.14400
H 	H 	0.91050 0.88120 0.65240 0.17200
H 	H 	0.70610 0.19290 0.59870 -0.05300
H 	H 	0.97650 0.99600 0.53600 -0.04600
H 	H 	0.42770 0.73530 0.64510 0.14300
H 	H 	0.69720 0.58290 0.71410 0.13700
H 	H 	0.43350 0.61520 0.51920 -0.01600
H 	H 	0.70780 0.46870 0.58030 -0.00900
H 	H 	0.87440 0.72740 0.02240 0.16000
H 	H 	0.64710 0.57020 0.13740 0.17600
H 	H 	0.98970 0.61560 0.09980 -0.03400
H 	H 	0.76510 0.45780 0.21460 -0.02800
H 	H 	0.99200 0.99740 0.79160 0.06400
H 	H 	0.95780 0.91340 0.87080 0.05000
H 	H 	0.13020 0.87030 0.97950 0.02900
H 	H 	0.08720 0.78120 0.93360 0.03200
H 	H 	0.11950 0.87010 0.67170 0.03700
H 	H 	0.19920 0.78620 0.71720 0.03800
H 	H 	0.20460 0.99990 0.86130 0.04100
H 	H 	0.26960 0.91960 0.77840 0.03200
H 	H 	0.81410 0.03200 0.90900 0.15900
H 	H 	0.99540 0.14300 0.07820 0.16700
H 	H 	0.66800 0.12130 0.01270 -0.02600
H 	H 	0.85120 0.23060 0.17820 -0.04200
H 	H 	0.14130 0.72380 0.08200 0.14200
H 	H 	0.41050 0.65240 0.88120 0.17000
H 	H 	0.20610 0.59870 0.19290 -0.05400
H 	H 	0.47650 0.53600 0.99600 -0.04800
H 	H 	0.92770 0.64510 0.73530 0.14200
H 	H 	0.19720 0.71410 0.58290 0.13600
H 	H 	0.93350 0.51920 0.61520 -0.01800
H 	H 	0.20780 0.58030 0.46870 -0.01100
H 	H 	0.37440 0.02240 0.72740 0.15800
H 	H 	0.14710 0.13740 0.57020 0.17200
H 	H 	0.48970 0.09980 0.61560 -0.03600
H 	H 	0.26510 0.21460 0.45780 -0.02700
C 	C 	0.61830 0.82560 0.89400 0.00100
C 	C 	0.50930 0.85070 0.95750 0.01500
C 	C 	0.63780 0.91960 0.82700 0.03500
C 	C 	0.62940 0.73100 0.82700 0.02600
C 	C 	0.70150 0.80090 0.96150 0.02400
C 	C 	0.41930 0.98490 0.07530 0.31100
C 	C 	0.32150 0.96400 0.07080 -0.32800
C 	C 	0.42930 0.06560 0.13780 -0.30700
C 	C 	0.23430 0.02590 0.12490 0.21300
C 	C 	0.34350 0.12470 0.18990 0.20800
C 	C 	0.24400 0.10750 0.18450 -0.26000
C 	C 	0.14840 0.17120 0.24140 0.38800
C 	C 	0.77050 0.97040 0.69960 0.30800
C 	C 	0.70790 0.06420 0.68500 -0.30200
C 	C 	0.86980 0.94450 0.64290 -0.34700
C 	C 	0.74760 0.13070 0.61050 0.20300
C 	C 	0.90850 0.01230 0.57230 0.25200
C 	C 	0.84590 0.10640 0.55480 -0.28800
C 	C 	0.88910 0.17820 0.47800 0.42700
C 	C 	0.56370 0.67210 0.68910 0.29700
C 	C 	0.48380 0.68110 0.63250 -0.29000
C 	C 	0.64560 0.59120 0.67320 -0.29200
C 	C 	0.48740 0.60920 0.55700 0.18200
C 	C 	0.65020 0.52130 0.59450 0.17900
C 	C 	0.57100 0.52840 0.53740 -0.22800
C 	C 	0.57750 0.45060 0.45700 0.44900
C 	C 	0.74950 0.66010 0.07230 0.33500
C 	C 	0.85200 0.67320 0.06100 -0.34600
C 	C 	0.71650 0.57910 0.12970 -0.33000
C 	C 	0.92060 0.60570 0.10690 0.23700
C 	C 	0.78750 0.51170 0.17530 0.22900
C 	C 	0.89100 0.52310 0.16370 -0.27300
C 	C 	0.96890 0.44970 0.21030 0.49100
C 	C 	0.11830 0.89400 0.82560 0.01200
C 	C 	0.00930 0.95750 0.85070 -0.01900
C 	C 	0.13780 0.82700 0.91960 0.03000
C 	C 	0.12940 0.82700 0.73100 0.02000
C 	C 	0.20150 0.96150 0.80090 0.01900
C 	C 	0.91930 0.07530 0.98490 0.31600
C 	C 	0.82150 0.07080 0.96400 -0.33200
C 	C 	0.92930 0.13780 0.06560 -0.30700
C 	C 	0.73430 0.12490 0.02590 0.21700
C 	C 	0.84350 0.18990 0.12470 0.21100
C 	C 	0.74400 0.18450 0.10750 -0.26000
C 	C 	0.64840 0.24140 0.17120 0.38800
C 	C 	0.27050 0.69960 0.97040 0.30800
C 	C 	0.20790 0.68500 0.06420 -0.30400
C 	C 	0.36980 0.64290 0.94450 -0.34800
C 	C 	0.24760 0.61050 0.13070 0.20400
C 	C 	0.40850 0.57230 0.01230 0.25100
C 	C 	0.34590 0.55480 0.10640 -0.28900
C 	C 	0.38910 0.47800 0.17820 0.42800
C 	C 	0.06370 0.68910 0.67210 0.28800
C 	C 	0.98380 0.63250 0.68110 -0.28300
C 	C 	0.14560 0.67320 0.59120 -0.29200
C 	C 	0.98740 0.55700 0.60920 0.19200
C 	C 	0.15020 0.59450 0.52130 0.18100
C 	C 	0.07100 0.53740 0.52840 -0.23900
C 	C 	0.07750 0.45700 0.45060 0.45200
C 	C 	0.24950 0.07230 0.66010 0.33200
C 	C 	0.35200 0.06100 0.67320 -0.34300
C 	C 	0.21650 0.12970 0.57910 -0.32700
C 	C 	0.42060 0.10690 0.60570 0.23200
C 	C 	0.28750 0.17530 0.51170 0.22400
C 	C 	0.39100 0.16370 0.52310 -0.26900
C 	C 	0.46890 0.21030 0.44970 0.47700
O 	O 	0.51100 0.93310 0.02350 -0.24800
O 	O 	0.74000 0.89856 0.76984 -0.26300
O 	O 	0.55400 0.74731 0.76111 -0.25700
O 	O 	0.67370 0.72178 0.02942 -0.25000
O 	O 	0.06110 0.14987 0.24447 -0.38100
O 	O 	0.15930 0.25135 0.29119 -0.58900
O 	O 	0.83310 0.23652 0.42568 -0.53600
O 	O 	0.98540 0.18137 0.46683 -0.43400
O 	O 	0.50970 0.46310 0.40010 -0.47200
O 	O 	0.65280 0.37790 0.45090 -0.47400
O 	O 	0.06010 0.46510 0.19470 -0.53300
O 	O 	0.93540 0.37753 0.26207 -0.50200
O 	O 	0.01100 0.02350 0.93310 -0.24800
O 	O 	0.24000 0.76984 0.89856 -0.26200
O 	O 	0.05400 0.76111 0.74731 -0.25700
O 	O 	0.17370 0.02942 0.72178 -0.25100
O 	O 	0.56110 0.24447 0.14987 -0.37600
O 	O 	0.65930 0.29119 0.25135 -0.58800
O 	O 	0.33310 0.42568 0.23652 -0.53800
O 	O 	0.48540 0.46683 0.18137 -0.43900
O 	O 	0.00970 0.40010 0.46310 -0.47700
O 	O 	0.15280 0.45090 0.37790 -0.47600
O 	O 	0.56010 0.19470 0.46510 -0.52200
O 	O 	0.43540 0.26207 0.37753 -0.50300
