data_crystal

_cell_length_a 10.13700
_cell_length_b 10.22800
_cell_length_c 12.74700
_cell_angle_alpha 74.56200
_cell_angle_beta  83.79600
_cell_angle_gamma 60.95200

_symmetry_space_group_name_	'P 1'
_symmetry_space_group_name_H-M	'P 1'

loop_
_symmetry_equiv_pos_as_xyz
  x,y,z

loop_
_atom_site_label
_atom_site_type_symbol
_atom_site_fract_x
_atom_site_fract_y
_atom_site_fract_z
_atom_site_charge
Zn	Zn	0.50787 0.59543 0.71489 1.21100
Zn	Zn	0.84511 0.88619 0.84619 1.19500
Zn	Zn	0.49213 0.40457 0.28511 1.21000
Zn	Zn	0.15489 0.11381 0.15381 1.17400
Zn	Zn	0.50000 0.50000 -0.00000 1.14600
H 	H 	0.69930 0.68550 0.00740 -0.08000
H 	H 	0.68450 0.12020 0.99900 0.04000
H 	H 	0.13200 0.81800 0.67400 0.00200
H 	H 	0.12900 0.70800 0.99000 0.01800
H 	H 	0.71900 0.75400 0.69500 0.00900
H 	H 	0.69100 0.22800 0.68500 -0.00400
H 	H 	0.30070 0.31450 0.99260 0.08200
H 	H 	0.31550 0.87980 0.00100 -0.01200
H 	H 	0.86800 0.18200 0.32600 0.00100
H 	H 	0.87100 0.29200 0.01000 -0.03700
H 	H 	0.28100 0.24600 0.30500 0.00300
H 	H 	0.30900 0.77200 0.31500 -0.00400
C 	C 	0.16170 0.77430 0.74720 0.18200
C 	C 	0.16760 0.70860 0.91990 0.13500
C 	C 	0.69770 0.73010 0.76640 0.15200
C 	C 	0.68670 0.68860 0.93540 0.25700
C 	C 	0.67650 0.23770 0.75660 0.12900
C 	C 	0.66970 0.17740 0.92700 0.11000
C 	C 	0.51540 0.71820 0.49210 0.45100
C 	C 	0.60600 0.73910 0.39280 -0.20500
C 	C 	0.69730 0.61560 0.34550 0.24900
C 	C 	0.60750 0.87580 0.34450 0.25400
C 	C 	0.78400 0.63030 0.25520 0.29400
C 	C 	0.69450 0.88810 0.25550 0.27900
C 	C 	0.78520 0.76610 0.21190 -0.26500
C 	C 	0.88480 0.77950 0.11940 0.46500
C 	C 	0.83830 0.22570 0.25280 0.17900
C 	C 	0.83240 0.29140 0.08010 0.12400
C 	C 	0.30230 0.26990 0.23360 0.15400
C 	C 	0.31330 0.31140 0.06460 0.00500
C 	C 	0.32350 0.76230 0.24340 0.12700
C 	C 	0.33030 0.82260 0.07300 0.10000
C 	C 	0.48460 0.28180 0.50790 0.45200
C 	C 	0.39400 0.26090 0.60720 -0.21000
C 	C 	0.30270 0.38440 0.65450 0.25400
C 	C 	0.39250 0.12420 0.65550 0.26000
C 	C 	0.21600 0.36970 0.74480 0.28600
C 	C 	0.30550 0.11190 0.74450 0.26200
C 	C 	0.21480 0.23390 0.78810 -0.24500
C 	C 	0.11520 0.22050 0.88060 0.44300
N 	N 	0.30550 0.68400 0.77890 -0.21600
N 	N 	0.30980 0.64290 0.89060 -0.21300
N 	N 	0.06980 0.79120 0.83400 -0.26800
N 	N 	0.62180 0.65510 0.79570 -0.22600
N 	N 	0.61610 0.62650 0.90820 -0.22800
N 	N 	0.74110 0.75880 0.85100 -0.28600
N 	N 	0.59990 0.36820 0.78650 -0.23100
N 	N 	0.59510 0.32880 0.89870 -0.20400
N 	N 	0.72310 0.11230 0.84110 -0.27400
N 	N 	0.69450 0.31600 0.22110 -0.21800
N 	N 	0.69020 0.35710 0.10940 -0.23900
N 	N 	0.93020 0.20880 0.16600 -0.27900
N 	N 	0.37820 0.34490 0.20430 -0.23100
N 	N 	0.38390 0.37350 0.09180 -0.21400
N 	N 	0.25890 0.24120 0.14900 -0.26600
N 	N 	0.40010 0.63180 0.21350 -0.23400
N 	N 	0.40490 0.67120 0.10130 -0.23000
N 	N 	0.27690 0.88770 0.15890 -0.28400
O 	O 	0.59450 0.61200 0.57250 -0.42600
O 	O 	0.38020 0.80600 0.49230 -0.26800
O 	O 	0.02380 0.73020 0.14780 -0.27800
O 	O 	0.83570 0.83310 0.02310 -0.46400
O 	O 	0.40550 0.38800 0.42750 -0.42800
O 	O 	0.61980 0.19400 0.50770 -0.27100
O 	O 	0.97620 0.26980 0.85220 -0.23800
O 	O 	0.16430 0.16690 0.97690 -0.39000
F 	F 	0.69840 0.47990 0.38810 -0.45300
F 	F 	0.52940 0.99650 0.38960 -0.40600
F 	F 	0.87040 0.50820 0.21370 -0.45700
F 	F 	0.69390 0.02590 0.21370 -0.46100
F 	F 	0.30160 0.52010 0.61190 -0.45400
F 	F 	0.47060 0.00350 0.61040 -0.41400
F 	F 	0.12960 0.49180 0.78630 -0.44900
F 	F 	0.30610 0.97410 0.78630 -0.43400
