data_crystal

_cell_length_a 6.62840
_cell_length_b 12.18160
_cell_length_c 17.12900
_cell_angle_alpha 90.00000
_cell_angle_beta  90.00000
_cell_angle_gamma 90.00000

_symmetry_space_group_name_	'P 1'
_symmetry_space_group_name_H-M	'P 1'

loop_
_symmetry_equiv_pos_as_xyz
  x,y,z

loop_
_atom_site_label
_atom_site_type_symbol
_atom_site_fract_x
_atom_site_fract_y
_atom_site_fract_z
_atom_site_charge
Al	Al	0.00815 0.99891 0.00184 2.37800
Al	Al	0.00700 0.49631 0.50246 2.40400
Al	Al	0.50804 0.99628 0.00180 2.38800
Al	Al	0.50826 0.49995 0.50149 2.41400
H 	H 	0.07928 0.17100 0.20344 -0.06200
H 	H 	0.07955 0.27542 0.32573 -0.07500
H 	H 	0.92886 0.67006 0.29906 0.16500
H 	H 	0.92868 0.77357 0.17610 0.14200
H 	H 	0.57957 0.83025 0.79674 0.03400
H 	H 	0.57972 0.72493 0.67486 0.04200
H 	H 	0.42860 0.32652 0.70477 0.04400
H 	H 	0.42877 0.22221 0.82731 0.06500
H 	H 	0.93047 0.82929 0.79709 0.15100
H 	H 	0.93071 0.72384 0.67514 0.15900
H 	H 	0.07746 0.32704 0.70489 -0.07200
H 	H 	0.07745 0.22321 0.82734 -0.05000
H 	H 	0.43077 0.17175 0.20314 0.05600
H 	H 	0.43037 0.27655 0.32534 0.04400
H 	H 	0.57742 0.66955 0.29897 0.04500
H 	H 	0.57802 0.77264 0.17617 0.02200
H 	H 	0.26019 0.36979 0.51416 0.41500
H 	H 	0.76047 0.62887 0.50215 0.42800
H 	H 	0.26004 0.12543 0.01841 0.32800
H 	H 	0.76007 0.86745 0.99965 0.67300
C 	C 	0.93670 0.19502 0.22872 0.16600
C 	C 	0.93681 0.25417 0.29944 0.17500
C 	C 	0.07140 0.69256 0.27318 -0.16800
C 	C 	0.07178 0.75098 0.20192 -0.15300
C 	C 	0.43670 0.80673 0.77142 -0.01300
C 	C 	0.43685 0.74719 0.70082 -0.01000
C 	C 	0.57114 0.30225 0.72987 0.03700
C 	C 	0.57158 0.24361 0.80087 0.02600
C 	C 	0.07344 0.80614 0.77155 -0.15200
C 	C 	0.07362 0.74645 0.70097 -0.15200
C 	C 	0.93450 0.30253 0.72994 0.17700
C 	C 	0.93487 0.24420 0.80090 0.16100
C 	C 	0.57340 0.19548 0.22857 0.02500
C 	C 	0.57338 0.25488 0.29926 0.03200
C 	C 	0.43452 0.69225 0.27313 -0.02200
C 	C 	0.43507 0.75039 0.20191 -0.00900
C 	C 	0.75581 0.36276 0.40499 0.53700
C 	C 	0.75578 0.10647 0.11410 0.53300
C 	C 	0.75518 0.28738 0.33504 -0.13100
C 	C 	0.75512 0.16757 0.19073 -0.11200
C 	C 	0.25525 0.85941 0.09648 0.49700
C 	C 	0.25366 0.60574 0.38857 0.48600
C 	C 	0.25390 0.78301 0.16579 -0.14400
C 	C 	0.25317 0.66510 0.31116 -0.10300
C 	C 	0.25599 0.63482 0.59727 0.50400
C 	C 	0.25546 0.89295 0.88710 0.48300
C 	C 	0.25545 0.71300 0.66547 -0.11200
C 	C 	0.25497 0.83393 0.80956 -0.11600
C 	C 	0.75505 0.13439 0.90602 0.52400
C 	C 	0.75373 0.38894 0.61417 0.53900
C 	C 	0.75367 0.21089 0.83658 -0.09100
C 	C 	0.75312 0.32891 0.69136 -0.12900
O 	O 	0.92756 0.08189 0.08295 -0.49700
O 	O 	0.92799 0.39387 0.43312 -0.58400
O 	O 	0.08310 0.57835 0.41958 -0.74700
O 	O 	0.08486 0.89497 0.07025 -0.88700
O 	O 	0.42746 0.91654 0.91868 -0.71000
O 	O 	0.42801 0.60310 0.56964 -0.67900
O 	O 	0.58315 0.41688 0.58352 -0.66000
O 	O 	0.58439 0.09914 0.93250 -0.49800
O 	O 	0.08423 0.91904 0.91829 -0.78800
O 	O 	0.08591 0.59858 0.57171 -0.75600
O 	O 	0.92635 0.41246 0.58293 -0.58300
O 	O 	0.92749 0.10242 0.93337 -0.42400
O 	O 	0.58500 0.07900 0.08348 -0.57400
O 	O 	0.58522 0.39797 0.43136 -0.66700
O 	O 	0.42618 0.58233 0.41998 -0.67200
O 	O 	0.42744 0.89141 0.06916 -0.80600
O 	O 	0.75904 0.93824 0.00033 -1.53300
O 	O 	0.25915 0.43997 0.50752 -1.18700
O 	O 	0.25908 0.05589 0.00901 -1.03700
O 	O 	0.75932 0.55804 0.50121 -1.13400
