data_crystal

_cell_length_a 6.93510
_cell_length_b 11.29180
_cell_length_c 11.29180
_cell_angle_alpha 79.17770
_cell_angle_beta  72.11640
_cell_angle_gamma 72.11640

_symmetry_space_group_name_	'P 1'
_symmetry_space_group_name_H-M	'P 1'

loop_
_symmetry_equiv_pos_as_xyz
  x,y,z

loop_
_atom_site_label
_atom_site_type_symbol
_atom_site_fract_x
_atom_site_fract_y
_atom_site_fract_z
_atom_site_charge
Fe	Fe	0.50000 0.00000 0.50000 1.18300
Fe	Fe	-0.00000 0.00000 0.50000 1.14700
H 	H 	0.25980 0.99980 0.89000 -0.01000
H 	H 	0.24020 0.61000 0.50020 0.11000
H 	H 	0.35040 0.39000 0.49980 0.00200
H 	H 	0.14960 0.00020 0.11000 0.09100
H 	H 	0.74020 0.00020 0.11000 0.12000
H 	H 	0.75980 0.39000 0.49980 -0.00200
H 	H 	0.64960 0.61000 0.50020 0.10500
H 	H 	0.85040 0.99980 0.89000 0.01600
C 	C 	0.35940 0.99980 0.93560 0.25400
C 	C 	0.14060 0.56440 0.50020 -0.21500
C 	C 	0.20520 0.43560 0.49980 0.14200
C 	C 	0.29480 0.00020 0.06440 -0.27300
C 	C 	0.64060 0.00020 0.06440 -0.26500
C 	C 	0.85940 0.43560 0.49980 0.20200
C 	C 	0.79480 0.56440 0.50020 -0.15700
C 	C 	0.70520 0.99980 0.93560 0.25700
C 	C 	0.56460 0.99970 0.87110 -0.22100
C 	C 	0.63310 0.99940 0.73440 0.42400
C 	C 	0.93540 0.62890 0.50030 0.11400
C 	C 	0.86690 0.76560 0.50060 0.30200
C 	C 	0.06460 0.37110 0.49970 -0.27800
C 	C 	0.13310 0.23440 0.49940 0.43400
C 	C 	0.43540 0.00030 0.12890 0.06000
C 	C 	0.36690 0.00060 0.26560 0.31200
O 	O 	0.50410 0.99930 0.67530 -0.34500
O 	O 	0.99590 0.82470 0.50070 -0.28300
O 	O 	0.32130 0.17530 0.49930 -0.45400
O 	O 	0.17870 0.00070 0.32470 -0.44800
O 	O 	0.49590 0.00070 0.32470 -0.42600
O 	O 	0.00410 0.17530 0.49930 -0.48300
O 	O 	0.67870 0.82470 0.50070 -0.31900
O 	O 	0.82130 0.99930 0.67530 -0.31600
O 	O 	0.75000 0.06190 0.43810 -0.44400
O 	O 	0.25000 0.93810 0.56190 -0.33600
