data_crystal

_cell_length_a 6.88900
_cell_length_b 11.10930
_cell_length_c 11.10930
_cell_angle_alpha 60.39600
_cell_angle_beta  73.65400
_cell_angle_gamma 73.65370

_symmetry_space_group_name_	'P 1'
_symmetry_space_group_name_H-M	'P 1'

loop_
_symmetry_equiv_pos_as_xyz
  x,y,z

loop_
_atom_site_label
_atom_site_type_symbol
_atom_site_fract_x
_atom_site_fract_y
_atom_site_fract_z
_atom_site_charge
Fe	Fe	-0.00000 0.00000 -0.00000 0.96700
Fe	Fe	0.50000 0.00000 -0.00000 1.03700
H 	H 	0.78140 0.40090 0.95830 0.13500
H 	H 	0.34380 0.39120 0.01700 0.07000
H 	H 	0.71860 0.04170 0.59910 -0.07600
H 	H 	0.15620 0.98300 0.60880 -0.07600
H 	H 	0.21860 0.59910 0.04170 -0.01700
H 	H 	0.65620 0.60880 0.98300 0.03900
H 	H 	0.28140 0.95830 0.40090 0.19000
H 	H 	0.84380 0.01700 0.39120 0.18100
C 	C 	0.07300 0.37880 0.98560 0.14700
C 	C 	0.87250 0.44230 0.97570 -0.06800
C 	C 	0.20050 0.43650 0.00990 -0.37900
C 	C 	0.15130 0.24880 0.97020 0.28200
C 	C 	0.42700 0.01440 0.62120 -0.58200
C 	C 	0.62750 0.02430 0.55770 0.41000
C 	C 	0.29950 0.99010 0.56350 0.56600
C 	C 	0.34870 0.02980 0.75120 0.51100
C 	C 	0.92700 0.62120 0.01440 -0.25600
C 	C 	0.12750 0.55770 0.02430 0.03000
C 	C 	0.79950 0.56350 0.99010 0.32900
C 	C 	0.84870 0.75120 0.02980 0.40300
C 	C 	0.57300 0.98560 0.37880 0.43800
C 	C 	0.37250 0.97570 0.44230 -0.42600
C 	C 	0.70050 0.00990 0.43650 -0.59300
C 	C 	0.65130 0.97020 0.24880 0.18400
O 	O 	0.03280 0.19480 0.94860 -0.37700
O 	O 	0.33750 0.19040 0.97860 -0.29800
O 	O 	0.46720 0.05140 0.80520 -0.39500
O 	O 	0.16250 0.02140 0.80960 -0.45100
O 	O 	0.96720 0.80520 0.05140 -0.31000
O 	O 	0.66250 0.80960 0.02140 -0.40200
O 	O 	0.53280 0.94860 0.19480 -0.31500
O 	O 	0.83750 0.97860 0.19040 -0.23700
O 	O 	0.25000 0.90920 0.09080 -0.38700
O 	O 	0.75000 0.09080 0.90920 -0.27400
