data_crystal

_cell_length_a 10.33700
_cell_length_b 11.64900
_cell_length_c 20.46400
_cell_angle_alpha 90.00000
_cell_angle_beta  90.00000
_cell_angle_gamma 90.00000

_symmetry_space_group_name_	'P 1'
_symmetry_space_group_name_H-M	'P 1'

loop_
_symmetry_equiv_pos_as_xyz
  x,y,z

loop_
_atom_site_label
_atom_site_type_symbol
_atom_site_fract_x
_atom_site_fract_y
_atom_site_fract_z
_atom_site_charge
Zn	Zn	0.95646 0.57766 0.00678 1.20800
Zn	Zn	0.64300 0.67521 0.00728 1.23500
Zn	Zn	0.54354 0.42234 0.50678 1.21100
Zn	Zn	0.85700 0.32479 0.50728 1.23500
Zn	Zn	0.04354 0.07766 0.49322 1.21100
Zn	Zn	0.35700 0.17521 0.49272 1.23500
Zn	Zn	0.45646 0.92234 0.99322 1.21000
Zn	Zn	0.14300 0.82479 0.99272 1.23400
H 	H 	0.94040 0.47260 0.81160 0.04000
H 	H 	0.56540 0.56150 0.81500 0.04300
H 	H 	0.92270 0.42570 0.70140 0.04100
H 	H 	0.54690 0.51560 0.70530 0.03200
H 	H 	0.73640 0.97460 0.99270 -0.05200
H 	H 	0.64990 0.96080 0.88640 0.22000
H 	H 	0.80140 0.96150 0.88350 0.24200
H 	H 	0.72570 0.84590 0.87530 0.23300
H 	H 	0.55960 0.52740 0.31160 0.03900
H 	H 	0.93460 0.43850 0.31500 0.04200
H 	H 	0.57730 0.57430 0.20140 0.04000
H 	H 	0.95310 0.48440 0.20530 0.03100
H 	H 	0.76360 0.02540 0.49270 -0.05200
H 	H 	0.85010 0.03920 0.38640 0.22000
H 	H 	0.69860 0.03850 0.38350 0.24200
H 	H 	0.77430 0.15410 0.37530 0.23300
H 	H 	0.05960 0.97260 0.68840 0.04000
H 	H 	0.43460 0.06150 0.68500 0.04400
H 	H 	0.07730 0.92570 0.79860 0.03900
H 	H 	0.45310 0.01560 0.79470 0.03100
H 	H 	0.26360 0.47460 0.50730 -0.05200
H 	H 	0.35010 0.46080 0.61360 0.22000
H 	H 	0.19860 0.46150 0.61650 0.24200
H 	H 	0.27430 0.34590 0.62470 0.23300
H 	H 	0.44040 0.02740 0.18840 0.03900
H 	H 	0.06540 0.93850 0.18500 0.04400
H 	H 	0.42270 0.07430 0.29860 0.04000
H 	H 	0.04690 0.98440 0.29470 0.03200
H 	H 	0.23640 0.52540 0.00730 -0.05100
H 	H 	0.14990 0.53920 0.11360 0.22100
H 	H 	0.30140 0.53850 0.11650 0.24300
H 	H 	0.22570 0.65410 0.12470 0.23400
C 	C 	0.76710 0.55330 0.89532 0.39100
C 	C 	0.75460 0.52220 0.82425 -0.09300
C 	C 	0.86160 0.48130 0.79025 -0.02100
C 	C 	0.63710 0.53460 0.79227 -0.02400
C 	C 	0.85110 0.45330 0.72395 -0.01600
C 	C 	0.62600 0.50710 0.72644 -0.01300
C 	C 	0.73340 0.46680 0.69191 -0.09700
C 	C 	0.72280 0.43800 0.62061 0.39700
C 	C 	0.85400 0.83300 0.98790 0.28500
C 	C 	0.73240 0.89960 0.97104 0.20000
C 	C 	0.72680 0.91870 0.89720 -0.71500
C 	C 	0.73290 0.44670 0.39532 0.39100
C 	C 	0.74540 0.47780 0.32425 -0.09400
C 	C 	0.63840 0.51870 0.29025 -0.02100
C 	C 	0.86290 0.46540 0.29227 -0.02400
C 	C 	0.64890 0.54670 0.22395 -0.01700
C 	C 	0.87400 0.49290 0.22644 -0.01300
C 	C 	0.76660 0.53320 0.19191 -0.09800
C 	C 	0.77720 0.56200 0.12061 0.39700
C 	C 	0.64600 0.16700 0.48790 0.28100
C 	C 	0.76760 0.10040 0.47104 0.20100
C 	C 	0.77320 0.08130 0.39720 -0.71500
C 	C 	0.23290 0.05330 0.60468 0.39100
C 	C 	0.24540 0.02220 0.67575 -0.09200
C 	C 	0.13840 0.98130 0.70975 -0.02400
C 	C 	0.36290 0.03460 0.70773 -0.02600
C 	C 	0.14890 0.95330 0.77605 -0.01400
C 	C 	0.37400 0.00710 0.77356 -0.01000
C 	C 	0.26660 0.96680 0.80809 -0.10000
C 	C 	0.27720 0.93800 0.87939 0.39700
C 	C 	0.14600 0.33300 0.51210 0.28100
C 	C 	0.26760 0.39960 0.52896 0.20100
C 	C 	0.27320 0.41870 0.60280 -0.71600
C 	C 	0.26710 0.94670 0.10468 0.39100
C 	C 	0.25460 0.97780 0.17575 -0.09100
C 	C 	0.36160 0.01870 0.20975 -0.02300
C 	C 	0.13710 0.96540 0.20773 -0.02500
C 	C 	0.35110 0.04670 0.27605 -0.01500
C 	C 	0.12600 0.99290 0.27356 -0.01100
C 	C 	0.23340 0.03320 0.30809 -0.09900
C 	C 	0.22280 0.06200 0.37939 0.39700
C 	C 	0.35400 0.66700 0.01210 0.28400
C 	C 	0.23240 0.60040 0.02896 0.20000
C 	C 	0.22680 0.58130 0.10280 -0.71600
O 	O 	0.66710 0.58590 0.92447 -0.48000
O 	O 	0.87810 0.54210 0.92010 -0.50200
O 	O 	0.61820 0.46470 0.59275 -0.51000
O 	O 	0.82000 0.39120 0.59509 -0.47800
O 	O 	0.84140 0.72920 0.00535 -0.54700
O 	O 	0.95970 0.88440 0.98152 -0.42300
O 	O 	0.61990 0.84120 0.99294 -0.59200
O 	O 	0.83290 0.41410 0.42447 -0.48100
O 	O 	0.62190 0.45790 0.42010 -0.50400
O 	O 	0.88180 0.53530 0.09275 -0.51100
O 	O 	0.68000 0.60880 0.09509 -0.47900
O 	O 	0.65860 0.27080 0.50535 -0.54400
O 	O 	0.54030 0.11560 0.48152 -0.42400
O 	O 	0.88010 0.15880 0.49294 -0.59300
O 	O 	0.33290 0.08590 0.57553 -0.48000
O 	O 	0.12190 0.04210 0.57990 -0.50400
O 	O 	0.38180 0.96470 0.90725 -0.51000
O 	O 	0.18000 0.89120 0.90491 -0.48000
O 	O 	0.15860 0.22920 0.49465 -0.54400
O 	O 	0.04030 0.38440 0.51848 -0.42400
O 	O 	0.38010 0.34120 0.50706 -0.59300
O 	O 	0.16710 0.91410 0.07553 -0.47900
O 	O 	0.37810 0.95790 0.07990 -0.50300
O 	O 	0.11820 0.03530 0.40725 -0.51000
O 	O 	0.32000 0.10880 0.40491 -0.47900
O 	O 	0.34140 0.77080 0.99465 -0.54500
O 	O 	0.45970 0.61560 0.01848 -0.42500
O 	O 	0.11990 0.65880 0.00706 -0.59000
