data_crystal

_cell_length_a 10.29900
_cell_length_b 11.82400
_cell_length_c 20.37200
_cell_angle_alpha 90.00000
_cell_angle_beta  90.00000
_cell_angle_gamma 90.00000

_symmetry_space_group_name_	'P 1'
_symmetry_space_group_name_H-M	'P 1'

loop_
_symmetry_equiv_pos_as_xyz
  x,y,z

loop_
_atom_site_label
_atom_site_type_symbol
_atom_site_fract_x
_atom_site_fract_y
_atom_site_fract_z
_atom_site_charge
Zn	Zn	0.03799 0.91988 0.00865 1.21000
Zn	Zn	0.35120 0.82453 0.00779 1.23800
Zn	Zn	0.46201 0.08012 0.50865 1.21200
Zn	Zn	0.14880 0.17547 0.50779 1.23900
Zn	Zn	0.96201 0.41988 0.49135 1.21200
Zn	Zn	0.64880 0.32453 0.49221 1.23800
Zn	Zn	0.53799 0.58012 0.99135 1.21200
Zn	Zn	0.85120 0.67547 0.99221 1.23700
H 	H 	0.25890 0.52860 0.98980 -0.03900
H 	H 	0.34460 0.54910 0.88220 0.18400
H 	H 	0.19090 0.55060 0.87950 0.20500
H 	H 	0.26970 0.66530 0.87400 0.19500
H 	H 	0.04630 0.00920 0.21030 0.02800
H 	H 	0.40680 0.88800 0.20910 0.03500
H 	H 	0.42570 0.92890 0.31760 0.04000
H 	H 	0.06820 0.04820 0.32070 0.04600
H 	H 	0.24110 0.47140 0.48980 -0.03900
H 	H 	0.15540 0.45090 0.38220 0.18400
H 	H 	0.30910 0.44940 0.37950 0.20400
H 	H 	0.23030 0.33470 0.37400 0.19400
H 	H 	0.45370 0.99080 0.71030 0.02900
H 	H 	0.09320 0.11200 0.70910 0.03500
H 	H 	0.07430 0.07110 0.81760 0.04100
H 	H 	0.43180 0.95180 0.82070 0.04600
H 	H 	0.74110 0.02860 0.51020 -0.03900
H 	H 	0.65540 0.04910 0.61780 0.18300
H 	H 	0.80910 0.05060 0.62050 0.20400
H 	H 	0.73030 0.16530 0.62600 0.19400
H 	H 	0.95370 0.50920 0.28970 0.03000
H 	H 	0.59320 0.38800 0.29090 0.03600
H 	H 	0.57430 0.42890 0.18240 0.04000
H 	H 	0.93180 0.54820 0.17930 0.04600
H 	H 	0.75890 0.97140 0.01020 -0.03800
H 	H 	0.84460 0.95090 0.11780 0.18400
H 	H 	0.69090 0.94940 0.12050 0.20400
H 	H 	0.76970 0.83470 0.12600 0.19400
H 	H 	0.54630 0.49080 0.78970 0.02900
H 	H 	0.90680 0.61200 0.79090 0.03500
H 	H 	0.92570 0.57110 0.68240 0.03900
H 	H 	0.56820 0.45180 0.67930 0.04600
C 	C 	0.14050 0.67000 0.98680 0.30600
C 	C 	0.26240 0.60430 0.96910 0.15400
C 	C 	0.26740 0.59110 0.89430 -0.59700
C 	C 	0.21680 0.93390 0.12250 0.41500
C 	C 	0.23210 0.96280 0.19350 -0.11300
C 	C 	0.12780 0.00050 0.23040 0.00100
C 	C 	0.34060 0.92930 0.22990 -0.00200
C 	C 	0.27400 0.05030 0.39740 0.38400
C 	C 	0.25930 0.01780 0.32590 -0.08500
C 	C 	0.35280 0.95460 0.29420 -0.02900
C 	C 	0.14110 0.02560 0.29620 -0.03200
C 	C 	0.35950 0.33000 0.48680 0.30200
C 	C 	0.23760 0.39570 0.46910 0.15500
C 	C 	0.23260 0.40890 0.39430 -0.59700
C 	C 	0.28320 0.06610 0.62250 0.41500
C 	C 	0.26790 0.03720 0.69350 -0.11400
C 	C 	0.37220 0.99950 0.73040 0.00100
C 	C 	0.15940 0.07070 0.72990 -0.00100
C 	C 	0.22600 0.94970 0.89740 0.38400
C 	C 	0.24070 0.98220 0.82590 -0.08300
C 	C 	0.14720 0.04540 0.79420 -0.03000
C 	C 	0.35890 0.97440 0.79620 -0.03300
C 	C 	0.85950 0.17000 0.51320 0.30200
C 	C 	0.73760 0.10430 0.53090 0.15500
C 	C 	0.73260 0.09110 0.60570 -0.59600
C 	C 	0.78320 0.43390 0.37750 0.41400
C 	C 	0.76790 0.46280 0.30650 -0.11100
C 	C 	0.87220 0.50050 0.26960 -0.00200
C 	C 	0.65940 0.42930 0.27010 -0.00400
C 	C 	0.72600 0.55030 0.10260 0.38500
C 	C 	0.74070 0.51780 0.17410 -0.08600
C 	C 	0.64720 0.45460 0.20580 -0.02600
C 	C 	0.85890 0.52560 0.20380 -0.03000
C 	C 	0.64050 0.83000 0.01320 0.30500
C 	C 	0.76240 0.89570 0.03090 0.15400
C 	C 	0.76740 0.90890 0.10570 -0.59600
C 	C 	0.71680 0.56610 0.87750 0.41400
C 	C 	0.73210 0.53720 0.80650 -0.11100
C 	C 	0.62780 0.49950 0.76960 -0.00200
C 	C 	0.84060 0.57070 0.77010 -0.00400
C 	C 	0.77400 0.44970 0.60260 0.38500
C 	C 	0.75930 0.48220 0.67410 -0.08700
C 	C 	0.85280 0.54540 0.70580 -0.02600
C 	C 	0.64110 0.47440 0.70380 -0.03000
O 	O 	0.15320 0.77070 0.00609 -0.55300
O 	O 	0.37460 0.66200 0.99116 -0.58100
O 	O 	0.03370 0.62000 0.98080 -0.43100
O 	O 	0.11090 0.95450 0.09592 -0.52000
O 	O 	0.31540 0.89130 0.09500 -0.48200
O 	O 	0.38580 0.04090 0.42169 -0.50200
O 	O 	0.17350 0.08250 0.42727 -0.47800
O 	O 	0.34680 0.22930 0.50609 -0.55000
O 	O 	0.12540 0.33800 0.49116 -0.58100
O 	O 	0.46630 0.38000 0.48080 -0.43200
O 	O 	0.38910 0.04550 0.59592 -0.51900
O 	O 	0.18460 0.10870 0.59500 -0.48200
O 	O 	0.11420 0.95910 0.92169 -0.50000
O 	O 	0.32650 0.91750 0.92727 -0.47700
O 	O 	0.84680 0.27070 0.49391 -0.55000
O 	O 	0.62540 0.16200 0.50884 -0.58100
O 	O 	0.96630 0.12000 0.51920 -0.43300
O 	O 	0.88910 0.45450 0.40408 -0.51800
O 	O 	0.68460 0.39130 0.40500 -0.48200
O 	O 	0.61420 0.54090 0.07831 -0.50100
O 	O 	0.82650 0.58250 0.07273 -0.47700
O 	O 	0.65320 0.72930 0.99391 -0.55200
O 	O 	0.87460 0.83800 0.00884 -0.57900
O 	O 	0.53370 0.88000 0.01920 -0.43300
O 	O 	0.61090 0.54550 0.90408 -0.51900
O 	O 	0.81540 0.60870 0.90500 -0.48300
O 	O 	0.88580 0.45910 0.57831 -0.50300
O 	O 	0.67350 0.41750 0.57273 -0.47800
