data_crystal

_cell_length_a 13.79800
_cell_length_b 14.37500
_cell_length_c 15.22800
_cell_angle_alpha 90.00000
_cell_angle_beta  90.00000
_cell_angle_gamma 90.00000

_symmetry_space_group_name_	'P 1'
_symmetry_space_group_name_H-M	'P 1'

loop_
_symmetry_equiv_pos_as_xyz
  x,y,z

loop_
_atom_site_label
_atom_site_type_symbol
_atom_site_fract_x
_atom_site_fract_y
_atom_site_fract_z
_atom_site_charge
Zn	Zn	0.54834 0.52427 0.96002 1.19600
Zn	Zn	0.70857 0.65621 0.82153 1.15200
Zn	Zn	0.95166 0.47573 0.46002 1.19600
Zn	Zn	0.79143 0.34379 0.32153 1.15200
Zn	Zn	0.45166 0.02427 0.53998 1.19600
Zn	Zn	0.29143 0.15621 0.67847 1.15100
Zn	Zn	0.04834 0.97573 0.03998 1.19400
Zn	Zn	0.20857 0.84379 0.17847 1.15100
H 	H 	0.84770 0.75250 0.03230 -0.03600
H 	H 	0.97480 0.68650 0.26160 -0.03300
H 	H 	0.74870 0.53610 0.17540 -0.05000
H 	H 	0.65230 0.24750 0.53230 -0.03600
H 	H 	0.52520 0.31350 0.76160 -0.03300
H 	H 	0.75130 0.46390 0.67540 -0.05000
H 	H 	0.15230 0.25250 0.46770 -0.03600
H 	H 	0.02520 0.18650 0.23840 -0.03300
H 	H 	0.25130 0.03610 0.32460 -0.05000
H 	H 	0.34770 0.74750 0.96770 -0.03600
H 	H 	0.47480 0.81350 0.73840 -0.03300
H 	H 	0.24870 0.96390 0.82460 -0.05000
C 	C 	0.78810 0.64260 0.09220 -0.25600
C 	C 	0.85180 0.71460 0.08320 0.17300
C 	C 	0.92250 0.73450 0.14520 -0.27700
C 	C 	0.92650 0.67650 0.21820 0.16700
C 	C 	0.86010 0.60360 0.22850 -0.26600
C 	C 	0.79290 0.58620 0.16780 0.17000
C 	C 	0.71290 0.61870 0.02180 0.46100
C 	C 	0.98750 0.81180 0.13300 0.46400
C 	C 	0.86620 0.54400 0.30970 0.45300
C 	C 	0.71190 0.35740 0.59220 -0.25600
C 	C 	0.64820 0.28540 0.58320 0.17300
C 	C 	0.57750 0.26550 0.64520 -0.27700
C 	C 	0.57350 0.32350 0.71820 0.16700
C 	C 	0.63990 0.39640 0.72850 -0.26600
C 	C 	0.70710 0.41380 0.66780 0.16900
C 	C 	0.78710 0.38130 0.52180 0.45900
C 	C 	0.51250 0.18820 0.63300 0.46200
C 	C 	0.63380 0.45600 0.80970 0.45300
C 	C 	0.21190 0.14260 0.40780 -0.25600
C 	C 	0.14820 0.21460 0.41680 0.17300
C 	C 	0.07750 0.23450 0.35480 -0.27700
C 	C 	0.07350 0.17650 0.28180 0.16800
C 	C 	0.13990 0.10360 0.27150 -0.26600
C 	C 	0.20710 0.08620 0.33220 0.17000
C 	C 	0.28710 0.11870 0.47820 0.45900
C 	C 	0.01250 0.31180 0.36700 0.46400
C 	C 	0.13380 0.04400 0.19030 0.45500
C 	C 	0.28810 0.85740 0.90780 -0.25600
C 	C 	0.35180 0.78540 0.91680 0.17300
C 	C 	0.42250 0.76550 0.85480 -0.27700
C 	C 	0.42650 0.82350 0.78180 0.16700
C 	C 	0.36010 0.89640 0.77150 -0.26600
C 	C 	0.29290 0.91380 0.83220 0.17000
C 	C 	0.21290 0.88130 0.97820 0.46100
C 	C 	0.48750 0.68820 0.86700 0.46200
C 	C 	0.36620 0.95600 0.69030 0.45400
O 	O 	0.65250 0.55420 0.03620 -0.56800
O 	O 	0.71500 0.66970 0.95700 -0.55200
O 	O 	0.97540 0.86570 0.06780 -0.54800
O 	O 	0.05670 0.82190 0.18610 -0.53100
O 	O 	0.93970 0.55590 0.36090 -0.54900
O 	O 	0.80310 0.48690 0.32270 -0.56800
O 	O 	0.84750 0.44580 0.53620 -0.56800
O 	O 	0.78500 0.33030 0.45700 -0.55100
O 	O 	0.52460 0.13430 0.56780 -0.54900
O 	O 	0.44330 0.17810 0.68610 -0.53000
O 	O 	0.56030 0.44410 0.86090 -0.55000
O 	O 	0.69690 0.51310 0.82270 -0.56800
O 	O 	0.34750 0.05420 0.46380 -0.56800
O 	O 	0.28500 0.16970 0.54300 -0.55000
O 	O 	0.02460 0.36570 0.43220 -0.54800
O 	O 	0.94330 0.32190 0.31390 -0.53100
O 	O 	0.06030 0.05590 0.13910 -0.54900
O 	O 	0.19690 0.98690 0.17730 -0.57000
O 	O 	0.15250 0.94580 0.96380 -0.56700
O 	O 	0.21500 0.83030 0.04300 -0.55200
O 	O 	0.47540 0.63430 0.93220 -0.54900
O 	O 	0.55670 0.67810 0.81390 -0.52900
O 	O 	0.43970 0.94410 0.63910 -0.54900
O 	O 	0.30310 0.01310 0.67730 -0.56900
