data_crystal

_cell_length_a 11.26380
_cell_length_b 11.26380
_cell_length_c 13.80700
_cell_angle_alpha 107.51900
_cell_angle_beta  107.51900
_cell_angle_gamma 90.47920

_symmetry_space_group_name_	'P 1'
_symmetry_space_group_name_H-M	'P 1'

loop_
_symmetry_equiv_pos_as_xyz
  x,y,z

loop_
_atom_site_label
_atom_site_type_symbol
_atom_site_fract_x
_atom_site_fract_y
_atom_site_fract_z
_atom_site_charge
Fe	Fe	0.99896 0.00104 0.25000 1.28100
Fe	Fe	0.00104 0.99896 0.75000 1.26700
Fe	Fe	-0.00000 0.00000 -0.00000 1.13300
Fe	Fe	-0.00000 0.00000 0.50000 1.17100
H 	H 	0.99382 0.60854 0.42112 0.06900
H 	H 	0.99344 0.38834 0.36613 0.08200
H 	H 	0.99297 0.39013 0.06979 0.06100
H 	H 	0.99335 0.61033 0.12479 0.06700
H 	H 	0.39146 0.00618 0.07888 0.02100
H 	H 	0.61166 0.00656 0.13387 0.01400
H 	H 	0.60987 0.00703 0.43021 0.03100
H 	H 	0.38967 0.00665 0.37521 0.03000
H 	H 	0.00618 0.39146 0.57888 0.03800
H 	H 	0.00656 0.61166 0.63387 0.02500
H 	H 	0.00703 0.60987 0.93021 0.04500
H 	H 	0.00665 0.38967 0.87521 0.04300
H 	H 	0.60854 0.99382 0.92112 0.08500
H 	H 	0.38834 0.99344 0.86613 0.08900
H 	H 	0.39013 0.99297 0.56979 0.07600
H 	H 	0.61033 0.99335 0.62479 0.08000
C 	C 	0.99361 0.62829 0.27766 -0.11100
C 	C 	0.99364 0.56328 0.34833 0.02800
C 	C 	0.99342 0.43434 0.31612 -0.01500
C 	C 	0.99317 0.37039 0.21325 -0.06300
C 	C 	0.99314 0.43538 0.14259 -0.01800
C 	C 	0.99337 0.56433 0.17479 0.02900
C 	C 	0.99385 0.76517 0.31185 0.50600
C 	C 	0.99293 0.23351 0.17907 0.37000
C 	C 	0.37171 0.00639 0.22234 -0.06400
C 	C 	0.43672 0.00636 0.15167 -0.04400
C 	C 	0.56566 0.00658 0.18388 -0.00200
C 	C 	0.62961 0.00683 0.28675 -0.11200
C 	C 	0.56462 0.00686 0.35741 0.00200
C 	C 	0.43567 0.00663 0.32521 -0.04500
C 	C 	0.23483 0.00615 0.18815 0.24500
C 	C 	0.76649 0.00707 0.32093 0.37900
C 	C 	0.00639 0.37171 0.72234 -0.04900
C 	C 	0.00636 0.43672 0.65167 -0.04400
C 	C 	0.00658 0.56566 0.68388 0.00400
C 	C 	0.00683 0.62961 0.78675 -0.10400
C 	C 	0.00686 0.56462 0.85741 0.00800
C 	C 	0.00663 0.43567 0.82521 -0.04500
C 	C 	0.00615 0.23483 0.68815 0.23400
C 	C 	0.00707 0.76649 0.82093 0.37600
C 	C 	0.62829 0.99361 0.77766 -0.09300
C 	C 	0.56328 0.99364 0.84833 0.02500
C 	C 	0.43434 0.99342 0.81612 -0.00800
C 	C 	0.37039 0.99317 0.71325 -0.05800
C 	C 	0.43538 0.99314 0.64259 -0.01100
C 	C 	0.56433 0.99337 0.67479 0.02600
C 	C 	0.76517 0.99385 0.81185 0.48100
C 	C 	0.23351 0.99293 0.67907 0.37000
O 	O 	0.98706 0.82306 0.40410 -0.34900
O 	O 	0.00086 0.82552 0.24913 -0.51400
O 	O 	0.99150 0.17374 0.24347 -0.39100
O 	O 	0.99415 0.17501 0.08513 -0.39400
O 	O 	0.94017 0.93499 0.09235 -0.32400
O 	O 	0.17694 0.01294 0.09590 -0.44100
O 	O 	0.17448 0.99914 0.25087 -0.30900
O 	O 	0.82626 0.00850 0.25653 -0.42600
O 	O 	0.82499 0.00585 0.41487 -0.39700
O 	O 	0.06501 0.05983 0.40765 -0.51700
O 	O 	0.01294 0.17694 0.59590 -0.41700
O 	O 	0.99914 0.17448 0.75087 -0.28400
O 	O 	0.00850 0.82626 0.75653 -0.42200
O 	O 	0.00585 0.82499 0.91487 -0.37500
O 	O 	0.05983 0.06501 0.90765 -0.47500
O 	O 	0.82306 0.98706 0.90410 -0.31700
O 	O 	0.82552 0.00086 0.74913 -0.47900
O 	O 	0.17374 0.99150 0.74347 -0.39000
O 	O 	0.17501 0.99415 0.58513 -0.37900
O 	O 	0.93499 0.94017 0.59235 -0.30500
