data_crystal

_cell_length_a 16.61500
_cell_length_b 17.25200
_cell_length_c 20.59600
_cell_angle_alpha 90.00000
_cell_angle_beta  90.00000
_cell_angle_gamma 98.07900

_symmetry_space_group_name_	'P 1'
_symmetry_space_group_name_H-M	'P 1'

loop_
_symmetry_equiv_pos_as_xyz
  x,y,z

loop_
_atom_site_label
_atom_site_type_symbol
_atom_site_fract_x
_atom_site_fract_y
_atom_site_fract_z
_atom_site_charge
Zn	Zn	0.09467 0.93952 0.84865 1.20100
Zn	Zn	0.98022 0.74645 0.82741 1.24900
Zn	Zn	0.38381 0.05131 0.63759 1.20700
Zn	Zn	0.40533 0.56048 0.34865 1.20300
Zn	Zn	0.51978 0.75355 0.32741 1.25000
Zn	Zn	0.11619 0.44869 0.13759 1.20700
Zn	Zn	0.90533 0.06048 0.15135 1.20200
Zn	Zn	0.01978 0.25355 0.17259 1.25000
Zn	Zn	0.61619 0.94869 0.36241 1.20700
Zn	Zn	0.59467 0.43952 0.65135 1.20300
Zn	Zn	0.48022 0.24645 0.67259 1.25000
Zn	Zn	0.88381 0.55131 0.86241 1.20700
H 	H 	0.30460 0.85880 0.91870 0.04200
H 	H 	0.41970 0.80180 0.94080 0.08600
H 	H 	0.30350 0.59370 0.88400 0.08300
H 	H 	0.19020 0.65120 0.85970 0.03100
H 	H 	0.51770 0.74550 0.03700 0.09700
H 	H 	0.51630 0.73250 0.14920 0.03500
H 	H 	0.38710 0.52120 0.13380 0.02400
H 	H 	0.38880 0.53120 0.02250 0.08000
H 	H 	0.56750 0.15950 0.84760 0.03200
H 	H 	0.61420 0.10980 0.94240 0.07700
H 	H 	0.53490 0.89170 0.88010 0.08700
H 	H 	0.48680 0.94290 0.78630 0.04000
H 	H 	0.89860 0.02840 0.95970 0.02200
H 	H 	0.81060 0.80830 0.91120 0.03300
H 	H 	0.68160 0.82910 0.94170 0.08700
H 	H 	0.74190 0.81140 0.78870 0.03500
H 	H 	0.61570 0.83710 0.75580 0.07100
H 	H 	0.53570 0.60570 0.75290 0.07700
H 	H 	0.66150 0.58200 0.78950 0.02700
H 	H 	0.50950 0.89330 0.67300 0.07300
H 	H 	0.54230 0.94050 0.56900 0.02600
H 	H 	0.49130 0.72310 0.49810 0.03200
H 	H 	0.46010 0.67580 0.60140 0.07500
H 	H 	0.76990 0.04850 0.99640 0.07600
H 	H 	0.19540 0.64120 0.41870 0.04200
H 	H 	0.08030 0.69820 0.44080 0.08600
H 	H 	0.19650 0.90630 0.38400 0.08300
H 	H 	0.30980 0.84880 0.35970 0.03100
H 	H 	0.98230 0.75450 0.53700 0.09800
H 	H 	0.98370 0.76750 0.64920 0.03700
H 	H 	0.11290 0.97880 0.63380 0.02400
H 	H 	0.11120 0.96880 0.52250 0.08000
H 	H 	0.93250 0.34050 0.34760 0.03100
H 	H 	0.88580 0.39020 0.44240 0.07700
H 	H 	0.96510 0.60830 0.38010 0.08800
H 	H 	0.01320 0.55710 0.28630 0.03900
H 	H 	0.60140 0.47160 0.45970 0.02500
H 	H 	0.68940 0.69170 0.41120 0.03400
H 	H 	0.81840 0.67090 0.44170 0.08700
H 	H 	0.75810 0.68860 0.28870 0.03500
H 	H 	0.88430 0.66290 0.25580 0.07100
H 	H 	0.96430 0.89430 0.25290 0.07800
H 	H 	0.83850 0.91800 0.28950 0.02700
H 	H 	0.99050 0.60670 0.17300 0.07300
H 	H 	0.95770 0.55950 0.06900 0.02500
H 	H 	0.00870 0.77690 0.99810 0.02900
H 	H 	0.03990 0.82420 0.10140 0.07600
H 	H 	0.73010 0.45150 0.49640 0.07500
H 	H 	0.69540 0.14120 0.08130 0.04200
H 	H 	0.58030 0.19820 0.05920 0.08600
H 	H 	0.69650 0.40630 0.11600 0.08300
H 	H 	0.80980 0.34880 0.14030 0.03100
H 	H 	0.48230 0.25450 0.96300 0.09700
H 	H 	0.48370 0.26750 0.85080 0.03500
H 	H 	0.61290 0.47880 0.86620 0.02400
H 	H 	0.61120 0.46880 0.97750 0.08000
H 	H 	0.43250 0.84050 0.15240 0.03200
H 	H 	0.38580 0.89020 0.05760 0.07700
H 	H 	0.46510 0.10830 0.11990 0.08700
H 	H 	0.51320 0.05710 0.21370 0.04000
H 	H 	0.10140 0.97160 0.04030 0.02200
H 	H 	0.18940 0.19170 0.08880 0.03300
H 	H 	0.31840 0.17090 0.05830 0.08700
H 	H 	0.25810 0.18860 0.21130 0.03500
H 	H 	0.38430 0.16290 0.24420 0.07100
H 	H 	0.46430 0.39430 0.24710 0.07700
H 	H 	0.33850 0.41800 0.21050 0.02700
H 	H 	0.49050 0.10670 0.32700 0.07300
H 	H 	0.45770 0.05950 0.43100 0.02600
H 	H 	0.50870 0.27690 0.50190 0.03200
H 	H 	0.53990 0.32420 0.39860 0.07500
H 	H 	0.23010 0.95150 0.00360 0.07600
H 	H 	0.80460 0.35880 0.58130 0.04200
H 	H 	0.91970 0.30180 0.55920 0.08600
H 	H 	0.80350 0.09370 0.61600 0.08300
H 	H 	0.69020 0.15120 0.64030 0.03100
H 	H 	0.01770 0.24550 0.46300 0.09800
H 	H 	0.01630 0.23250 0.35080 0.03700
H 	H 	0.88710 0.02120 0.36620 0.02400
H 	H 	0.88880 0.03120 0.47750 0.08000
H 	H 	0.06750 0.65950 0.65240 0.03100
H 	H 	0.11420 0.60980 0.55760 0.07700
H 	H 	0.03490 0.39170 0.61990 0.08800
H 	H 	0.98680 0.44290 0.71370 0.03900
H 	H 	0.39860 0.52840 0.54030 0.02500
H 	H 	0.31060 0.30830 0.58880 0.03400
H 	H 	0.18160 0.32910 0.55830 0.08700
H 	H 	0.24190 0.31140 0.71130 0.03500
H 	H 	0.11570 0.33710 0.74420 0.07100
H 	H 	0.03570 0.10570 0.74710 0.07800
H 	H 	0.16150 0.08200 0.71050 0.02700
H 	H 	0.00950 0.39330 0.82700 0.07300
H 	H 	0.04230 0.44050 0.93100 0.02500
H 	H 	0.99130 0.22310 0.00190 0.02900
H 	H 	0.96010 0.17580 0.89860 0.07600
H 	H 	0.26990 0.54850 0.50360 0.07500
C 	C 	0.16060 0.79770 0.87070 0.42000
C 	C 	0.23520 0.76060 0.88740 -0.12600
C 	C 	0.30430 0.80550 0.91150 0.04500
C 	C 	0.37310 0.77150 0.92490 -0.09000
C 	C 	0.37220 0.69300 0.91480 0.02600
C 	C 	0.30370 0.64700 0.89060 -0.09400
C 	C 	0.23610 0.68150 0.87670 0.05000
C 	C 	0.45500 0.63870 0.01920 0.02900
C 	C 	0.49210 0.69990 0.05640 -0.10800
C 	C 	0.49070 0.69190 0.12360 0.05700
C 	C 	0.45220 0.62560 0.15290 -0.13500
C 	C 	0.41400 0.56620 0.11430 0.05900
C 	C 	0.41490 0.57180 0.04790 -0.10300
C 	C 	0.45510 0.62030 0.22600 0.42300
C 	C 	0.49140 0.08940 0.74640 0.41600
C 	C 	0.52280 0.05590 0.80740 -0.12400
C 	C 	0.56080 0.10570 0.85430 0.04900
C 	C 	0.58890 0.07630 0.91080 -0.08200
C 	C 	0.57880 0.99620 0.91960 0.02200
C 	C 	0.54110 0.94550 0.87350 -0.08600
C 	C 	0.51290 0.97630 0.81760 0.04600
C 	C 	0.71410 0.94120 0.97040 0.01700
C 	C 	0.85480 0.98850 0.95630 0.04400
C 	C 	0.86610 0.91760 0.93030 -0.12700
C 	C 	0.80180 0.85710 0.92660 0.04400
C 	C 	0.72520 0.86900 0.94550 -0.09900
C 	C 	0.94710 0.90420 0.90360 0.39900
C 	C 	0.79670 0.67740 0.81330 0.41300
C 	C 	0.71470 0.69410 0.79220 -0.12600
C 	C 	0.70020 0.77020 0.78200 0.04300
C 	C 	0.62510 0.78580 0.76230 -0.08700
C 	C 	0.56330 0.72410 0.75230 0.01900
C 	C 	0.57670 0.64700 0.76100 -0.08900
C 	C 	0.65240 0.63320 0.78200 0.03900
C 	C 	0.48410 0.78000 0.64680 0.01500
C 	C 	0.50690 0.85910 0.63790 -0.10700
C 	C 	0.52600 0.88730 0.57560 0.04000
C 	C 	0.52080 0.83640 0.52380 -0.13400
C 	C 	0.49560 0.75720 0.53330 0.04200
C 	C 	0.47710 0.72890 0.59490 -0.09600
C 	C 	0.54520 0.86640 0.45690 0.42700
C 	C 	0.77790 0.00110 0.97770 -0.10900
C 	C 	0.33940 0.70230 0.37070 0.42000
C 	C 	0.26480 0.73940 0.38740 -0.12600
C 	C 	0.19570 0.69450 0.41150 0.04500
C 	C 	0.12690 0.72850 0.42490 -0.09000
C 	C 	0.12780 0.80700 0.41480 0.02600
C 	C 	0.19630 0.85300 0.39060 -0.09400
C 	C 	0.26390 0.81850 0.37670 0.05000
C 	C 	0.04500 0.86130 0.51920 0.02900
C 	C 	0.00790 0.80010 0.55640 -0.10900
C 	C 	0.00930 0.80810 0.62360 0.05300
C 	C 	0.04780 0.87440 0.65290 -0.13400
C 	C 	0.08600 0.93380 0.61430 0.05800
C 	C 	0.08510 0.92820 0.54790 -0.10300
C 	C 	0.04490 0.87970 0.72600 0.42000
C 	C 	0.00860 0.41060 0.24640 0.41800
C 	C 	0.97720 0.44410 0.30740 -0.12700
C 	C 	0.93920 0.39430 0.35430 0.05100
C 	C 	0.91110 0.42370 0.41080 -0.08500
C 	C 	0.92120 0.50380 0.41960 0.02400
C 	C 	0.95890 0.55450 0.37350 -0.08800
C 	C 	0.98710 0.52370 0.31760 0.04900
C 	C 	0.78590 0.55880 0.47040 0.01500
C 	C 	0.64520 0.51150 0.45630 0.03900
C 	C 	0.63390 0.58240 0.43030 -0.12500
C 	C 	0.69820 0.64290 0.42660 0.04100
C 	C 	0.77480 0.63100 0.44550 -0.09700
C 	C 	0.55290 0.59580 0.40360 0.39800
C 	C 	0.70330 0.82260 0.31330 0.41300
C 	C 	0.78530 0.80590 0.29220 -0.12600
C 	C 	0.79980 0.72980 0.28200 0.04400
C 	C 	0.87490 0.71420 0.26230 -0.08800
C 	C 	0.93670 0.77590 0.25230 0.02100
C 	C 	0.92330 0.85300 0.26100 -0.09000
C 	C 	0.84760 0.86680 0.28200 0.04000
C 	C 	0.01590 0.72000 0.14680 0.01600
C 	C 	0.99310 0.64090 0.13790 -0.10800
C 	C 	0.97400 0.61270 0.07560 0.04100
C 	C 	0.97920 0.66360 0.02380 -0.13600
C 	C 	0.00440 0.74280 0.03330 0.04600
C 	C 	0.02290 0.77110 0.09490 -0.09900
C 	C 	0.95480 0.63360 0.95690 0.42800
C 	C 	0.72210 0.49890 0.47770 -0.10500
C 	C 	0.83940 0.20230 0.12930 0.42000
C 	C 	0.76480 0.23940 0.11260 -0.12600
C 	C 	0.69570 0.19450 0.08850 0.04500
C 	C 	0.62690 0.22850 0.07510 -0.09000
C 	C 	0.62780 0.30700 0.08520 0.02600
C 	C 	0.69630 0.35300 0.10940 -0.09400
C 	C 	0.76390 0.31850 0.12330 0.05000
C 	C 	0.54500 0.36130 0.98080 0.02900
C 	C 	0.50790 0.30010 0.94360 -0.10800
C 	C 	0.50930 0.30810 0.87640 0.05700
C 	C 	0.54780 0.37440 0.84710 -0.13500
C 	C 	0.58600 0.43380 0.88570 0.05900
C 	C 	0.58510 0.42820 0.95210 -0.10300
C 	C 	0.54490 0.37970 0.77400 0.42300
C 	C 	0.50860 0.91060 0.25360 0.41600
C 	C 	0.47720 0.94410 0.19260 -0.12400
C 	C 	0.43920 0.89430 0.14570 0.04900
C 	C 	0.41110 0.92370 0.08920 -0.08200
C 	C 	0.42120 0.00380 0.08040 0.02200
C 	C 	0.45890 0.05450 0.12650 -0.08600
C 	C 	0.48710 0.02370 0.18240 0.04600
C 	C 	0.28590 0.05880 0.02960 0.01700
C 	C 	0.14520 0.01150 0.04370 0.04400
C 	C 	0.13390 0.08240 0.06970 -0.12700
C 	C 	0.19820 0.14290 0.07340 0.04400
C 	C 	0.27480 0.13100 0.05450 -0.09900
C 	C 	0.05290 0.09580 0.09640 0.39900
C 	C 	0.20330 0.32260 0.18670 0.41300
C 	C 	0.28530 0.30590 0.20780 -0.12600
C 	C 	0.29980 0.22980 0.21800 0.04300
C 	C 	0.37490 0.21420 0.23770 -0.08700
C 	C 	0.43670 0.27590 0.24770 0.01900
C 	C 	0.42330 0.35300 0.23900 -0.08900
C 	C 	0.34760 0.36680 0.21800 0.03900
C 	C 	0.51590 0.22000 0.35320 0.01500
C 	C 	0.49310 0.14090 0.36210 -0.10700
C 	C 	0.47400 0.11270 0.42440 0.04000
C 	C 	0.47920 0.16360 0.47620 -0.13400
C 	C 	0.50440 0.24280 0.46670 0.04200
C 	C 	0.52290 0.27110 0.40510 -0.09600
C 	C 	0.45480 0.13360 0.54310 0.42700
C 	C 	0.22210 0.99890 0.02230 -0.10900
C 	C 	0.66060 0.29770 0.62930 0.42000
C 	C 	0.73520 0.26060 0.61260 -0.12600
C 	C 	0.80430 0.30550 0.58850 0.04500
C 	C 	0.87310 0.27150 0.57510 -0.09000
C 	C 	0.87220 0.19300 0.58520 0.02600
C 	C 	0.80370 0.14700 0.60940 -0.09400
C 	C 	0.73610 0.18150 0.62330 0.05000
C 	C 	0.95500 0.13870 0.48080 0.02900
C 	C 	0.99210 0.19990 0.44360 -0.10900
C 	C 	0.99070 0.19190 0.37640 0.05300
C 	C 	0.95220 0.12560 0.34710 -0.13400
C 	C 	0.91400 0.06620 0.38570 0.05800
C 	C 	0.91490 0.07180 0.45210 -0.10300
C 	C 	0.95510 0.12030 0.27400 0.42000
C 	C 	0.99140 0.58940 0.75360 0.41800
C 	C 	0.02280 0.55590 0.69260 -0.12700
C 	C 	0.06080 0.60570 0.64570 0.05100
C 	C 	0.08890 0.57630 0.58920 -0.08500
C 	C 	0.07880 0.49620 0.58040 0.02400
C 	C 	0.04110 0.44550 0.62650 -0.08800
C 	C 	0.01290 0.47630 0.68240 0.04900
C 	C 	0.21410 0.44120 0.52960 0.01500
C 	C 	0.35480 0.48850 0.54370 0.03900
C 	C 	0.36610 0.41760 0.56970 -0.12500
C 	C 	0.30180 0.35710 0.57340 0.04100
C 	C 	0.22520 0.36900 0.55450 -0.09700
C 	C 	0.44710 0.40420 0.59640 0.39800
C 	C 	0.29670 0.17740 0.68670 0.41300
C 	C 	0.21470 0.19410 0.70780 -0.12600
C 	C 	0.20020 0.27020 0.71800 0.04400
C 	C 	0.12510 0.28580 0.73770 -0.08800
C 	C 	0.06330 0.22410 0.74770 0.02100
C 	C 	0.07670 0.14700 0.73900 -0.09000
C 	C 	0.15240 0.13320 0.71800 0.04000
C 	C 	0.98410 0.28000 0.85320 0.01600
C 	C 	0.00690 0.35910 0.86210 -0.10800
C 	C 	0.02600 0.38730 0.92440 0.04100
C 	C 	0.02080 0.33640 0.97620 -0.13600
C 	C 	0.99560 0.25720 0.96670 0.04600
C 	C 	0.97710 0.22890 0.90510 -0.09900
C 	C 	0.04520 0.36640 0.04310 0.42800
C 	C 	0.27790 0.50110 0.52230 -0.10500
S 	S 	0.45920 0.64911 0.93356 0.25800
S 	S 	0.61513 0.95739 0.99154 0.26900
S 	S 	0.46641 0.74324 0.72679 0.26700
S 	S 	0.04080 0.85089 0.43356 0.25600
S 	S 	0.88487 0.54261 0.49154 0.27000
S 	S 	0.03359 0.75676 0.22679 0.26500
S 	S 	0.54080 0.35089 0.06644 0.25800
S 	S 	0.38487 0.04261 0.00846 0.26900
S 	S 	0.53359 0.25676 0.27321 0.26700
S 	S 	0.95920 0.14911 0.56644 0.25600
S 	S 	0.11513 0.45739 0.50846 0.27000
S 	S 	0.96641 0.24324 0.77321 0.26500
O 	O 	0.16330 0.86900 0.88560 -0.50900
O 	O 	0.10430 0.75720 0.84240 -0.45900
O 	O 	0.52970 0.70410 0.91800 -0.20400
O 	O 	0.44840 0.57170 0.90580 -0.20600
O 	O 	0.50370 0.67010 0.25386 -0.45900
O 	O 	0.40930 0.56600 0.25360 -0.50100
O 	O 	0.49520 0.16100 0.74110 -0.44800
O 	O 	0.46080 0.03890 0.70500 -0.50800
O 	O 	0.62120 0.01730 0.04038 -0.22000
O 	O 	0.56790 0.88300 0.00369 -0.21700
O 	O 	0.99720 0.96370 0.89140 -0.49300
O 	O 	0.96040 0.83550 0.89480 -0.45900
O 	O 	0.85500 0.73200 0.81048 -0.43500
O 	O 	0.79930 0.60790 0.83120 -0.51300
O 	O 	0.44360 0.80510 0.76617 -0.21700
O 	O 	0.41340 0.67060 0.72310 -0.21000
O 	O 	0.58140 0.93530 0.45250 -0.49500
O 	O 	0.53060 0.82430 0.41000 -0.50800
O 	O 	0.33670 0.63100 0.38560 -0.50800
O 	O 	0.39570 0.74280 0.34240 -0.45800
O 	O 	0.97030 0.79590 0.41800 -0.20200
O 	O 	0.05160 0.92830 0.40580 -0.20600
O 	O 	0.99630 0.82990 0.75386 -0.45600
O 	O 	0.09070 0.93400 0.75360 -0.50100
O 	O 	0.00480 0.33900 0.24110 -0.44800
O 	O 	0.03920 0.46110 0.20500 -0.50900
O 	O 	0.87880 0.48270 0.54038 -0.21900
O 	O 	0.93210 0.61700 0.50369 -0.21800
O 	O 	0.50280 0.53630 0.39140 -0.49500
O 	O 	0.53960 0.66450 0.39480 -0.45900
O 	O 	0.64500 0.76800 0.31048 -0.43600
O 	O 	0.70070 0.89210 0.33120 -0.51200
O 	O 	0.05640 0.69490 0.26617 -0.21700
O 	O 	0.08660 0.82940 0.22310 -0.21000
O 	O 	0.91860 0.56470 0.95250 -0.49600
O 	O 	0.96940 0.67570 0.91000 -0.50800
O 	O 	0.83670 0.13100 0.11440 -0.50900
O 	O 	0.89570 0.24280 0.15760 -0.45900
O 	O 	0.47030 0.29590 0.08200 -0.20400
O 	O 	0.55160 0.42830 0.09420 -0.20600
O 	O 	0.49630 0.32990 0.74614 -0.45900
O 	O 	0.59070 0.43400 0.74640 -0.50100
O 	O 	0.50480 0.83900 0.25890 -0.44800
O 	O 	0.53920 0.96110 0.29500 -0.50800
O 	O 	0.37880 0.98270 0.95962 -0.22000
O 	O 	0.43210 0.11700 0.99631 -0.21700
O 	O 	0.00280 0.03630 0.10860 -0.49300
O 	O 	0.03960 0.16450 0.10520 -0.45900
O 	O 	0.14500 0.26800 0.18952 -0.43500
O 	O 	0.20070 0.39210 0.16880 -0.51300
O 	O 	0.55640 0.19490 0.23383 -0.21700
O 	O 	0.58660 0.32940 0.27690 -0.21000
O 	O 	0.41860 0.06470 0.54750 -0.49500
O 	O 	0.46940 0.17570 0.59000 -0.50800
O 	O 	0.66330 0.36900 0.61440 -0.50800
O 	O 	0.60430 0.25720 0.65760 -0.45800
O 	O 	0.02970 0.20410 0.58200 -0.20200
O 	O 	0.94840 0.07170 0.59420 -0.20600
O 	O 	0.00370 0.17010 0.24614 -0.45600
O 	O 	0.90930 0.06600 0.24640 -0.50100
O 	O 	0.99520 0.66100 0.75890 -0.44800
O 	O 	0.96080 0.53890 0.79500 -0.50900
O 	O 	0.12120 0.51730 0.45962 -0.21900
O 	O 	0.06790 0.38300 0.49631 -0.21800
O 	O 	0.49720 0.46370 0.60860 -0.49500
O 	O 	0.46040 0.33550 0.60520 -0.45900
O 	O 	0.35500 0.23200 0.68952 -0.43600
O 	O 	0.29930 0.10790 0.66880 -0.51200
O 	O 	0.94360 0.30510 0.73383 -0.21700
O 	O 	0.91340 0.17060 0.77690 -0.21000
O 	O 	0.08140 0.43530 0.04750 -0.49600
O 	O 	0.03060 0.32430 0.09000 -0.50800
