data_crystal

_cell_length_a 13.60100
_cell_length_b 15.60500
_cell_length_c 15.60500
_cell_angle_alpha 90.00000
_cell_angle_beta  90.00000
_cell_angle_gamma 90.00000

_symmetry_space_group_name_	'P 1'
_symmetry_space_group_name_H-M	'P 1'

loop_
_symmetry_equiv_pos_as_xyz
  x,y,z

loop_
_atom_site_label
_atom_site_type_symbol
_atom_site_fract_x
_atom_site_fract_y
_atom_site_fract_z
_atom_site_charge
Zn	Zn	0.64124 0.00000 -0.00000 1.11000
Zn	Zn	0.14124 0.50000 0.50000 1.17700
Zn	Zn	0.85876 0.50000 0.50000 1.17900
Zn	Zn	0.35876 0.00000 -0.00000 1.10900
H 	H 	0.50000 0.39440 0.60560 0.07700
H 	H 	0.50000 0.60560 0.39440 0.07700
H 	H 	0.00000 0.89440 0.89440 0.12200
H 	H 	0.00000 0.10560 0.10560 0.03800
H 	H 	0.35250 0.23790 0.76210 0.08100
H 	H 	0.35250 0.76210 0.23790 0.08100
H 	H 	0.85250 0.73790 0.73790 0.09300
H 	H 	0.85250 0.26210 0.26210 0.06500
H 	H 	0.14750 0.26210 0.26210 0.06700
H 	H 	0.14750 0.73790 0.73790 0.09500
H 	H 	0.64750 0.76210 0.23790 0.08300
H 	H 	0.64750 0.23790 0.76210 0.08300
C 	C 	0.50000 0.16120 0.83880 0.11100
C 	C 	0.50000 0.22850 0.77150 0.03700
C 	C 	0.50000 0.35220 0.64780 -0.09700
C 	C 	0.50000 0.83880 0.16120 0.11100
C 	C 	0.50000 0.77150 0.22850 0.03700
C 	C 	0.50000 0.64780 0.35220 -0.09700
C 	C 	0.00000 0.66120 0.66120 0.10600
C 	C 	0.00000 0.72850 0.72850 0.04600
C 	C 	0.00000 0.85220 0.85220 -0.12600
C 	C 	0.00000 0.33880 0.33880 0.10100
C 	C 	0.00000 0.27150 0.27150 0.00700
C 	C 	-0.00000 0.14780 0.14780 -0.09700
C 	C 	0.41170 0.25900 0.74100 -0.09500
C 	C 	0.41270 0.32180 0.67820 0.03800
C 	C 	0.31780 0.35580 0.64420 0.10800
C 	C 	0.41170 0.74100 0.25900 -0.09500
C 	C 	0.41270 0.67820 0.32180 0.03800
C 	C 	0.31780 0.64420 0.35580 0.10800
C 	C 	0.91170 0.75900 0.75900 -0.09400
C 	C 	0.91270 0.82180 0.82180 0.08100
C 	C 	0.81780 0.85580 0.85580 0.12100
C 	C 	0.91170 0.24100 0.24100 -0.07700
C 	C 	0.91270 0.17820 0.17820 0.01500
C 	C 	0.81780 0.14420 0.14420 0.09500
C 	C 	0.08830 0.24100 0.24100 -0.08600
C 	C 	0.08730 0.17820 0.17820 0.00800
C 	C 	0.18220 0.14420 0.14420 0.09400
C 	C 	0.08830 0.75900 0.75900 -0.10300
C 	C 	0.08730 0.82180 0.82180 0.07300
C 	C 	0.18220 0.85580 0.85580 0.12000
C 	C 	0.58830 0.74100 0.25900 -0.09500
C 	C 	0.58730 0.67820 0.32180 0.03800
C 	C 	0.68220 0.64420 0.35580 0.10900
C 	C 	0.58830 0.25900 0.74100 -0.09500
C 	C 	0.58730 0.32180 0.67820 0.03800
C 	C 	0.68220 0.35580 0.64420 0.10900
N 	N 	0.54860 0.07117 0.92883 -0.19600
N 	N 	0.58160 0.12829 0.87171 -0.10400
N 	N 	0.21350 0.42380 0.57620 -0.21200
N 	N 	0.30910 0.41444 0.58556 -0.10500
N 	N 	0.23150 0.32800 0.67200 -0.08800
N 	N 	0.16760 0.37440 0.62560 -0.06500
N 	N 	0.54860 0.92883 0.07117 -0.19600
N 	N 	0.58160 0.87171 0.12829 -0.10400
N 	N 	0.21350 0.57620 0.42380 -0.21200
N 	N 	0.30910 0.58556 0.41444 -0.10500
N 	N 	0.23150 0.67200 0.32800 -0.08800
N 	N 	0.16760 0.62560 0.37440 -0.06500
N 	N 	0.04860 0.57117 0.57117 -0.21100
N 	N 	0.08160 0.62829 0.62829 -0.10100
N 	N 	0.71350 0.92380 0.92380 -0.15200
N 	N 	0.80910 0.91444 0.91444 -0.06300
N 	N 	0.73150 0.82800 0.82800 -0.07200
N 	N 	0.66760 0.87440 0.87440 -0.03500
N 	N 	0.04860 0.42883 0.42883 -0.21500
N 	N 	0.08160 0.37171 0.37171 -0.11300
N 	N 	0.71350 0.07620 0.07620 -0.24800
N 	N 	0.80910 0.08556 0.08556 -0.14000
N 	N 	0.73150 0.17200 0.17200 -0.10100
N 	N 	0.66760 0.12560 0.12560 -0.08900
N 	N 	0.95140 0.42883 0.42883 -0.20600
N 	N 	0.91840 0.37171 0.37171 -0.10800
N 	N 	0.28650 0.07620 0.07620 -0.24900
N 	N 	0.19090 0.08556 0.08556 -0.14200
N 	N 	0.26850 0.17200 0.17200 -0.10200
N 	N 	0.33240 0.12560 0.12560 -0.08900
N 	N 	0.95140 0.57117 0.57117 -0.20200
N 	N 	0.91840 0.62829 0.62829 -0.09600
N 	N 	0.28650 0.92380 0.92380 -0.15300
N 	N 	0.19090 0.91444 0.91444 -0.06600
N 	N 	0.26850 0.82800 0.82800 -0.07300
N 	N 	0.33240 0.87440 0.87440 -0.03500
N 	N 	0.45140 0.92883 0.07117 -0.19600
N 	N 	0.41840 0.87171 0.12829 -0.10500
N 	N 	0.78650 0.57620 0.42380 -0.21100
N 	N 	0.69090 0.58556 0.41444 -0.10400
N 	N 	0.76850 0.67200 0.32800 -0.08600
N 	N 	0.83240 0.62560 0.37440 -0.06200
N 	N 	0.45140 0.07117 0.92883 -0.19600
N 	N 	0.41840 0.12829 0.87171 -0.10500
N 	N 	0.78650 0.42380 0.57620 -0.21100
N 	N 	0.69090 0.41444 0.58556 -0.10400
N 	N 	0.76850 0.32800 0.67200 -0.08600
N 	N 	0.83240 0.37440 0.62560 -0.06200
