data_crystal

_cell_length_a 18.26940
_cell_length_b 18.26940
_cell_length_c 18.26940
_cell_angle_alpha 105.02500
_cell_angle_beta  105.02500
_cell_angle_gamma 105.02500

_symmetry_space_group_name_	'P 1'
_symmetry_space_group_name_H-M	'P 1'

loop_
_symmetry_equiv_pos_as_xyz
  x,y,z

loop_
_atom_site_label
_atom_site_type_symbol
_atom_site_fract_x
_atom_site_fract_y
_atom_site_fract_z
_atom_site_charge
Zn	Zn	0.48785 0.05546 0.59880 1.19400
Zn	Zn	0.59880 0.48785 0.05546 1.19400
Zn	Zn	0.05546 0.59880 0.48785 1.19400
Zn	Zn	0.44454 0.01215 0.90120 1.19400
Zn	Zn	0.01215 0.90120 0.44454 1.19400
Zn	Zn	0.90120 0.44454 0.01215 1.19400
Zn	Zn	0.51215 0.94454 0.40120 1.19400
Zn	Zn	0.40120 0.51215 0.94454 1.19400
Zn	Zn	0.94454 0.40120 0.51215 1.19400
Zn	Zn	0.55546 0.98785 0.09880 1.19400
Zn	Zn	0.98785 0.09880 0.55546 1.19400
Zn	Zn	0.09880 0.55546 0.98785 1.19400
H 	H 	0.31760 0.01400 0.64800 0.04600
H 	H 	0.64800 0.31760 0.01400 0.04600
H 	H 	0.01400 0.64800 0.31760 0.04600
H 	H 	0.48600 0.18240 0.85200 0.04600
H 	H 	0.18240 0.85200 0.48600 0.04600
H 	H 	0.85200 0.48600 0.18240 0.04600
H 	H 	0.68240 0.98600 0.35200 0.04500
H 	H 	0.35200 0.68240 0.98600 0.04500
H 	H 	0.98600 0.35200 0.68240 0.04500
H 	H 	0.51400 0.81760 0.14800 0.04500
H 	H 	0.81760 0.14800 0.51400 0.04500
H 	H 	0.14800 0.51400 0.81760 0.04500
H 	H 	0.28355 0.21645 0.75000 0.07600
H 	H 	0.75000 0.28355 0.21645 0.07600
H 	H 	0.21645 0.75000 0.28355 0.07600
H 	H 	0.71645 0.78355 0.25000 0.07600
H 	H 	0.25000 0.71645 0.78355 0.07600
H 	H 	0.78355 0.25000 0.71645 0.07600
C 	C 	0.20600 0.07740 0.63020 0.13400
C 	C 	0.33540 0.06320 0.68990 -0.03600
C 	C 	0.28700 0.10900 0.69130 0.01500
C 	C 	0.63020 0.20600 0.07740 0.13400
C 	C 	0.68990 0.33540 0.06320 -0.03600
C 	C 	0.69130 0.28700 0.10900 0.01500
C 	C 	0.07740 0.63020 0.20600 0.13400
C 	C 	0.06320 0.68990 0.33540 -0.03600
C 	C 	0.10900 0.69130 0.28700 0.01500
C 	C 	0.42260 0.29400 0.86980 0.13400
C 	C 	0.43680 0.16460 0.81010 -0.03600
C 	C 	0.39100 0.21300 0.80870 0.01500
C 	C 	0.29400 0.86980 0.42260 0.13400
C 	C 	0.16460 0.81010 0.43680 -0.03600
C 	C 	0.21300 0.80870 0.39100 0.01500
C 	C 	0.86980 0.42260 0.29400 0.13400
C 	C 	0.81010 0.43680 0.16460 -0.03600
C 	C 	0.80870 0.39100 0.21300 0.01500
C 	C 	0.79400 0.92260 0.36980 0.13400
C 	C 	0.66460 0.93680 0.31010 -0.03600
C 	C 	0.71300 0.89100 0.30870 0.01500
C 	C 	0.36980 0.79400 0.92260 0.13400
C 	C 	0.31010 0.66460 0.93680 -0.03600
C 	C 	0.30870 0.71300 0.89100 0.01500
C 	C 	0.92260 0.36980 0.79400 0.13400
C 	C 	0.93680 0.31010 0.66460 -0.03600
C 	C 	0.89100 0.30870 0.71300 0.01500
C 	C 	0.57740 0.70600 0.13020 0.13400
C 	C 	0.56320 0.83540 0.18990 -0.03600
C 	C 	0.60900 0.78700 0.19130 0.01500
C 	C 	0.70600 0.13020 0.57740 0.13400
C 	C 	0.83540 0.18990 0.56320 -0.03600
C 	C 	0.78700 0.19130 0.60900 0.01500
C 	C 	0.13020 0.57740 0.70600 0.13400
C 	C 	0.18990 0.56320 0.83540 -0.03600
C 	C 	0.19130 0.60900 0.78700 0.01500
C 	C 	0.46225 0.03775 0.75000 0.14300
C 	C 	0.41095 0.08905 0.75000 -0.06400
C 	C 	0.31565 0.18435 0.75000 -0.04600
C 	C 	0.75000 0.46225 0.03775 0.14300
C 	C 	0.75000 0.41095 0.08905 -0.06400
C 	C 	0.75000 0.31565 0.18435 -0.04600
C 	C 	0.03775 0.75000 0.46225 0.14300
C 	C 	0.08905 0.75000 0.41095 -0.06400
C 	C 	0.18435 0.75000 0.31565 -0.04600
C 	C 	0.53775 0.96225 0.25000 0.14300
C 	C 	0.58905 0.91095 0.25000 -0.06400
C 	C 	0.68435 0.81565 0.25000 -0.04600
C 	C 	0.25000 0.53775 0.96225 0.14300
C 	C 	0.25000 0.58905 0.91095 -0.06400
C 	C 	0.25000 0.68435 0.81565 -0.04600
C 	C 	0.96225 0.25000 0.53775 0.14300
C 	C 	0.91095 0.25000 0.58905 -0.06400
C 	C 	0.81565 0.25000 0.68435 -0.04600
N 	N 	0.08919 0.07223 0.56489 -0.19700
N 	N 	0.09546 0.99986 0.53730 -0.19800
N 	N 	0.16890 0.00402 0.57934 -0.10300
N 	N 	0.15874 0.12110 0.62398 -0.09700
N 	N 	0.49289 0.02001 0.69530 -0.24900
N 	N 	0.53510 0.97150 0.71780 -0.04800
N 	N 	0.56489 0.08919 0.07223 -0.19700
N 	N 	0.53730 0.09546 0.99986 -0.19800
N 	N 	0.57934 0.16890 0.00402 -0.10300
N 	N 	0.62398 0.15874 0.12110 -0.09700
N 	N 	0.69530 0.49289 0.02001 -0.24900
N 	N 	0.71780 0.53510 0.97150 -0.04800
N 	N 	0.07223 0.56489 0.08919 -0.19700
N 	N 	0.99986 0.53730 0.09546 -0.19800
N 	N 	0.00402 0.57934 0.16890 -0.10300
N 	N 	0.12110 0.62398 0.15874 -0.09700
N 	N 	0.02001 0.69530 0.49289 -0.24900
N 	N 	0.97150 0.71780 0.53510 -0.04800
N 	N 	0.42777 0.41081 0.93511 -0.19700
N 	N 	0.50014 0.40454 0.96270 -0.19700
N 	N 	0.49598 0.33110 0.92066 -0.10400
N 	N 	0.37890 0.34126 0.87602 -0.09700
N 	N 	0.47999 0.00711 0.80470 -0.24900
N 	N 	0.52850 0.96490 0.78220 -0.04700
N 	N 	0.41081 0.93511 0.42777 -0.19700
N 	N 	0.40454 0.96270 0.50014 -0.19700
N 	N 	0.33110 0.92066 0.49598 -0.10400
N 	N 	0.34126 0.87602 0.37890 -0.09700
N 	N 	0.00711 0.80470 0.47999 -0.24900
N 	N 	0.96490 0.78220 0.52850 -0.04700
N 	N 	0.93511 0.42777 0.41081 -0.19700
N 	N 	0.96270 0.50014 0.40454 -0.19700
N 	N 	0.92066 0.49598 0.33110 -0.10400
N 	N 	0.87602 0.37890 0.34126 -0.09700
N 	N 	0.80470 0.47999 0.00711 -0.24900
N 	N 	0.78220 0.52850 0.96490 -0.04700
N 	N 	0.91081 0.92777 0.43511 -0.19700
N 	N 	0.90454 0.00014 0.46270 -0.19800
N 	N 	0.83110 0.99598 0.42066 -0.10300
N 	N 	0.84126 0.87890 0.37602 -0.09700
N 	N 	0.50711 0.97999 0.30470 -0.24900
N 	N 	0.46490 0.02850 0.28220 -0.04800
N 	N 	0.43511 0.91081 0.92777 -0.19700
N 	N 	0.46270 0.90454 0.00014 -0.19800
N 	N 	0.42066 0.83110 0.99598 -0.10300
N 	N 	0.37602 0.84126 0.87890 -0.09700
N 	N 	0.30470 0.50711 0.97999 -0.24900
N 	N 	0.28220 0.46490 0.02850 -0.04800
N 	N 	0.92777 0.43511 0.91081 -0.19700
N 	N 	0.00014 0.46270 0.90454 -0.19800
N 	N 	0.99598 0.42066 0.83110 -0.10300
N 	N 	0.87890 0.37602 0.84126 -0.09700
N 	N 	0.97999 0.30470 0.50711 -0.24900
N 	N 	0.02850 0.28220 0.46490 -0.04800
N 	N 	0.57223 0.58919 0.06489 -0.19700
N 	N 	0.49986 0.59546 0.03730 -0.19700
N 	N 	0.50402 0.66890 0.07934 -0.10400
N 	N 	0.62110 0.65874 0.12398 -0.09700
N 	N 	0.52001 0.99289 0.19530 -0.24900
N 	N 	0.47150 0.03510 0.21780 -0.04700
N 	N 	0.58919 0.06489 0.57223 -0.19700
N 	N 	0.59546 0.03730 0.49986 -0.19700
N 	N 	0.66890 0.07934 0.50402 -0.10400
N 	N 	0.65874 0.12398 0.62110 -0.09700
N 	N 	0.99289 0.19530 0.52001 -0.24900
N 	N 	0.03510 0.21780 0.47150 -0.04700
N 	N 	0.06489 0.57223 0.58919 -0.19700
N 	N 	0.03730 0.49986 0.59546 -0.19700
N 	N 	0.07934 0.50402 0.66890 -0.10400
N 	N 	0.12398 0.62110 0.65874 -0.09700
N 	N 	0.19530 0.52001 0.99289 -0.24900
N 	N 	0.21780 0.47150 0.03510 -0.04700
Cl	Cl	0.46784 0.17041 0.60994 -0.51500
Cl	Cl	0.60994 0.46784 0.17041 -0.51500
Cl	Cl	0.17041 0.60994 0.46784 -0.51500
Cl	Cl	0.32959 0.03216 0.89006 -0.51600
Cl	Cl	0.03216 0.89006 0.32959 -0.51600
Cl	Cl	0.89006 0.32959 0.03216 -0.51600
Cl	Cl	0.53216 0.82959 0.39006 -0.51500
Cl	Cl	0.39006 0.53216 0.82959 -0.51500
Cl	Cl	0.82959 0.39006 0.53216 -0.51500
Cl	Cl	0.67041 0.96784 0.10994 -0.51600
Cl	Cl	0.96784 0.10994 0.67041 -0.51600
Cl	Cl	0.10994 0.67041 0.96784 -0.51600
