data_crystal

_cell_length_a 11.38700
_cell_length_b 14.69140
_cell_length_c 14.69140
_cell_angle_alpha 119.74900
_cell_angle_beta  95.32210
_cell_angle_gamma 95.32210

_symmetry_space_group_name_	'P 1'
_symmetry_space_group_name_H-M	'P 1'

loop_
_symmetry_equiv_pos_as_xyz
  x,y,z

loop_
_atom_site_label
_atom_site_type_symbol
_atom_site_fract_x
_atom_site_fract_y
_atom_site_fract_z
_atom_site_charge
Zn	Zn	0.59577 0.16522 0.73360 1.22000
Zn	Zn	0.90423 0.26640 0.83478 1.21900
Zn	Zn	0.40423 0.83478 0.26640 1.22000
Zn	Zn	0.09577 0.73360 0.16522 1.21900
H 	H 	0.59120 0.44100 0.67140 -0.01100
H 	H 	0.60200 0.52370 0.57490 0.15000
H 	H 	0.62780 0.24890 0.31490 0.13700
H 	H 	0.61240 0.16360 0.41080 -0.00700
H 	H 	0.50830 0.26690 0.04250 -0.03600
H 	H 	0.47910 0.33470 0.21750 0.15000
H 	H 	0.82250 0.47240 0.31820 0.16900
H 	H 	0.85170 0.40310 0.14350 -0.02500
H 	H 	0.37390 0.04490 0.54750 0.01700
H 	H 	0.38030 0.09910 0.83470 -0.02000
H 	H 	0.16610 0.92090 0.46330 0.06200
H 	H 	0.10110 0.89620 0.54020 0.06200
H 	H 	0.03460 0.06300 0.61160 0.06700
H 	H 	0.09550 0.08340 0.53040 0.06800
H 	H 	0.19040 0.00550 0.73910 0.12100
H 	H 	0.90880 0.32860 0.55900 -0.01100
H 	H 	0.89800 0.42510 0.47630 0.15000
H 	H 	0.87220 0.68510 0.75110 0.13700
H 	H 	0.88760 0.58920 0.83640 -0.00700
H 	H 	0.99170 0.95750 0.73310 -0.03500
H 	H 	0.02090 0.78250 0.66530 0.14700
H 	H 	0.67750 0.68180 0.52760 0.16800
H 	H 	0.64830 0.85650 0.59690 -0.02500
H 	H 	0.12610 0.45250 0.95510 0.01800
H 	H 	0.11970 0.16530 0.90090 -0.01900
H 	H 	0.33390 0.53670 0.07910 0.06100
H 	H 	0.39890 0.45980 0.10380 0.06200
H 	H 	0.46540 0.38840 0.93700 0.06700
H 	H 	0.40450 0.46960 0.91660 0.06900
H 	H 	0.30960 0.26090 0.99450 0.12000
H 	H 	0.40880 0.55900 0.32860 -0.01100
H 	H 	0.39800 0.47630 0.42510 0.15000
H 	H 	0.37220 0.75110 0.68510 0.13700
H 	H 	0.38760 0.83640 0.58920 -0.00700
H 	H 	0.49170 0.73310 0.95750 -0.03600
H 	H 	0.52090 0.66530 0.78250 0.15000
H 	H 	0.17750 0.52760 0.68180 0.16900
H 	H 	0.14830 0.59690 0.85650 -0.02500
H 	H 	0.62610 0.95510 0.45250 0.01700
H 	H 	0.61970 0.90090 0.16530 -0.02000
H 	H 	0.83390 0.07910 0.53670 0.06200
H 	H 	0.89890 0.10380 0.45980 0.06200
H 	H 	0.96540 0.93700 0.38840 0.06700
H 	H 	0.90450 0.91660 0.46960 0.06800
H 	H 	0.80960 0.99450 0.26090 0.12100
H 	H 	0.09120 0.67140 0.44100 -0.01100
H 	H 	0.10200 0.57490 0.52370 0.15000
H 	H 	0.12780 0.31490 0.24890 0.13700
H 	H 	0.11240 0.41080 0.16360 -0.00700
H 	H 	0.00830 0.04250 0.26690 -0.03500
H 	H 	0.97910 0.21750 0.33470 0.14700
H 	H 	0.32250 0.31820 0.47240 0.16800
H 	H 	0.35170 0.14350 0.40310 -0.02500
H 	H 	0.87390 0.54750 0.04490 0.01800
H 	H 	0.88030 0.83470 0.09910 -0.01900
H 	H 	0.66610 0.46330 0.92090 0.06100
H 	H 	0.60110 0.54020 0.89620 0.06200
H 	H 	0.53460 0.61160 0.06300 0.06700
H 	H 	0.59550 0.53040 0.08340 0.06900
H 	H 	0.69040 0.73910 0.00550 0.12000
C 	C 	0.60210 0.29370 0.55210 -0.19000
C 	C 	0.59850 0.40222 0.59998 0.17100
C 	C 	0.60570 0.45153 0.54267 -0.28700
C 	C 	0.61860 0.39492 0.43648 0.30800
C 	C 	0.62060 0.28686 0.38634 -0.29900
C 	C 	0.61190 0.23643 0.44397 0.16000
C 	C 	0.59730 0.23841 0.61359 0.34200
C 	C 	0.68360 0.32811 0.07549 -0.25700
C 	C 	0.57160 0.30762 0.09758 0.20700
C 	C 	0.55400 0.34815 0.20225 -0.33500
C 	C 	0.64830 0.40821 0.28319 0.33500
C 	C 	0.75980 0.43045 0.26275 -0.33200
C 	C 	0.77670 0.38936 0.15824 0.20900
C 	C 	0.70390 0.28455 0.96245 0.46700
C 	C 	0.35280 0.04812 0.60868 0.09400
C 	C 	0.35420 0.07630 0.76370 0.13000
C 	C 	0.14170 0.95266 0.53274 -0.06300
C 	C 	0.05610 0.02881 0.54099 -0.10000
C 	C 	0.89790 0.44790 0.70630 -0.19000
C 	C 	0.90150 0.40002 0.59778 0.17100
C 	C 	0.89430 0.45733 0.54847 -0.28700
C 	C 	0.88140 0.56352 0.60508 0.30700
C 	C 	0.87940 0.61366 0.71314 -0.29900
C 	C 	0.88810 0.55603 0.76357 0.16000
C 	C 	0.90270 0.38641 0.76159 0.34200
C 	C 	0.81640 0.92451 0.67189 -0.25400
C 	C 	0.92840 0.90242 0.69238 0.20400
C 	C 	0.94600 0.79775 0.65185 -0.33100
C 	C 	0.85170 0.71681 0.59179 0.33300
C 	C 	0.74020 0.73725 0.56955 -0.33000
C 	C 	0.72330 0.84176 0.61064 0.20700
C 	C 	0.79610 0.03755 0.71545 0.46600
C 	C 	0.14720 0.39132 0.95188 0.09400
C 	C 	0.14580 0.23630 0.92370 0.13000
C 	C 	0.35830 0.46726 0.04734 -0.06000
C 	C 	0.44390 0.45901 0.97119 -0.10200
C 	C 	0.39790 0.70630 0.44790 -0.19000
C 	C 	0.40150 0.59778 0.40002 0.17100
C 	C 	0.39430 0.54847 0.45733 -0.28700
C 	C 	0.38140 0.60508 0.56352 0.30800
C 	C 	0.37940 0.71314 0.61366 -0.29900
C 	C 	0.38810 0.76357 0.55603 0.16000
C 	C 	0.40270 0.76159 0.38641 0.34200
C 	C 	0.31640 0.67189 0.92451 -0.25700
C 	C 	0.42840 0.69238 0.90242 0.20700
C 	C 	0.44600 0.65185 0.79775 -0.33500
C 	C 	0.35170 0.59179 0.71681 0.33500
C 	C 	0.24020 0.56955 0.73725 -0.33200
C 	C 	0.22330 0.61064 0.84176 0.20900
C 	C 	0.29610 0.71545 0.03755 0.46700
C 	C 	0.64720 0.95188 0.39132 0.09400
C 	C 	0.64580 0.92370 0.23630 0.13000
C 	C 	0.85830 0.04734 0.46726 -0.06300
C 	C 	0.94390 0.97119 0.45901 -0.10000
C 	C 	0.10210 0.55210 0.29370 -0.19000
C 	C 	0.09850 0.59998 0.40222 0.17100
C 	C 	0.10570 0.54267 0.45153 -0.28700
C 	C 	0.11860 0.43648 0.39492 0.30700
C 	C 	0.12060 0.38634 0.28686 -0.29900
C 	C 	0.11190 0.44397 0.23643 0.16000
C 	C 	0.09730 0.61359 0.23841 0.34200
C 	C 	0.18360 0.07549 0.32811 -0.25400
C 	C 	0.07160 0.09758 0.30762 0.20400
C 	C 	0.05400 0.20225 0.34815 -0.33100
C 	C 	0.14830 0.28319 0.40821 0.33300
C 	C 	0.25980 0.26275 0.43045 -0.33000
C 	C 	0.27670 0.15824 0.38936 0.20700
C 	C 	0.20390 0.96245 0.28455 0.46600
C 	C 	0.85280 0.60868 0.04812 0.09400
C 	C 	0.85420 0.76370 0.07630 0.13000
C 	C 	0.64170 0.53274 0.95266 -0.06000
C 	C 	0.55610 0.54099 0.02881 -0.10200
N 	N 	0.42400 0.09408 0.70212 -0.26400
N 	N 	0.24740 0.02446 0.71454 -0.18200
N 	N 	0.24820 0.00771 0.61549 -0.08100
N 	N 	0.07600 0.29788 0.90592 -0.26300
N 	N 	0.25260 0.28546 0.97554 -0.18100
N 	N 	0.25180 0.38451 0.99229 -0.08200
N 	N 	0.57600 0.90592 0.29788 -0.26400
N 	N 	0.75260 0.97554 0.28546 -0.18200
N 	N 	0.75180 0.99229 0.38451 -0.08100
N 	N 	0.92400 0.70212 0.09408 -0.26300
N 	N 	0.74740 0.71454 0.02446 -0.18100
N 	N 	0.74820 0.61549 0.00771 -0.08200
O 	O 	0.58460 0.13953 0.56747 -0.37700
O 	O 	0.60830 0.29332 0.71468 -0.44100
O 	O 	0.63220 0.45607 0.38923 -0.32100
O 	O 	0.61530 0.23137 0.89071 -0.50500
O 	O 	0.80670 0.30617 0.94863 -0.51300
O 	O 	0.91540 0.43253 0.86047 -0.37700
O 	O 	0.89170 0.28532 0.70668 -0.44100
O 	O 	0.86780 0.61077 0.54393 -0.32000
O 	O 	0.88470 0.10929 0.76863 -0.50600
O 	O 	0.69330 0.05137 0.69383 -0.51200
O 	O 	0.41540 0.86047 0.43253 -0.37700
O 	O 	0.39170 0.70668 0.28532 -0.44100
O 	O 	0.36780 0.54393 0.61077 -0.32100
O 	O 	0.38470 0.76863 0.10929 -0.50500
O 	O 	0.19330 0.69383 0.05137 -0.51300
O 	O 	0.08460 0.56747 0.13953 -0.37700
O 	O 	0.10830 0.71468 0.29332 -0.44100
O 	O 	0.13220 0.38923 0.45607 -0.32000
O 	O 	0.11530 0.89071 0.23137 -0.50600
O 	O 	0.30670 0.94863 0.30617 -0.51200
