data_crystal

_cell_length_a 9.66820
_cell_length_b 11.21510
_cell_length_c 14.43620
_cell_angle_alpha 91.25890
_cell_angle_beta  90.00000
_cell_angle_gamma 90.00000

_symmetry_space_group_name_	'P 1'
_symmetry_space_group_name_H-M	'P 1'

loop_
_symmetry_equiv_pos_as_xyz
  x,y,z

loop_
_atom_site_label
_atom_site_type_symbol
_atom_site_fract_x
_atom_site_fract_y
_atom_site_fract_z
_atom_site_charge
Zn	Zn	0.91715 0.75658 0.13099 1.26000
Zn	Zn	0.09961 0.73933 0.31541 1.23300
Zn	Zn	0.41715 0.74342 0.36901 1.24700
Zn	Zn	0.59961 0.76067 0.18459 1.25200
Zn	Zn	0.08285 0.24342 0.86901 1.23100
Zn	Zn	0.90039 0.26067 0.68459 1.26900
Zn	Zn	0.58285 0.25658 0.63099 1.24200
Zn	Zn	0.40039 0.23933 0.81541 1.25000
Zn	Zn	-0.00000 0.50000 -0.00000 1.19500
Zn	Zn	0.50000 0.00000 0.50000 1.23100
Zn	Zn	-0.00000 0.00000 -0.00000 1.17100
Zn	Zn	0.50000 0.50000 0.50000 1.25500
H 	H 	0.74370 0.86730 0.36420 -0.08400
H 	H 	0.01940 0.47170 0.26820 -0.04300
H 	H 	0.61060 0.56360 0.03390 -0.06800
H 	H 	0.18420 0.98470 0.23730 -0.14600
H 	H 	0.18080 0.69660 0.93860 -0.11900
H 	H 	0.69650 0.99390 0.00590 -0.09300
H 	H 	0.24370 0.63270 0.13580 -0.12300
H 	H 	0.51940 0.02830 0.23180 -0.25600
H 	H 	0.11060 0.93640 0.46610 -0.09800
H 	H 	0.68420 0.51530 0.26270 -0.10600
H 	H 	0.68080 0.80340 0.56140 -0.07300
H 	H 	0.19650 0.50610 0.49410 -0.10700
H 	H 	0.25630 0.13270 0.63580 -0.12700
H 	H 	0.98060 0.52830 0.73180 -0.14900
H 	H 	0.38940 0.43640 0.96610 -0.12500
H 	H 	0.81580 0.01530 0.76270 -0.07100
H 	H 	0.81920 0.30340 0.06140 -0.06600
H 	H 	0.30350 0.00610 0.99410 -0.08100
H 	H 	0.75630 0.36730 0.86420 -0.08700
H 	H 	0.48060 0.97170 0.76820 0.05900
H 	H 	0.88940 0.06360 0.53390 -0.09200
H 	H 	0.31580 0.48470 0.73730 -0.11100
H 	H 	0.31920 0.19660 0.43860 -0.11700
H 	H 	0.80350 0.49390 0.50590 -0.07400
C 	C 	0.81770 0.83570 0.32800 0.48300
C 	C 	0.00230 0.51460 0.21340 0.22300
C 	C 	0.70620 0.57870 0.04360 0.31100
C 	C 	0.12590 0.95600 0.18880 0.64000
C 	C 	0.11550 0.74180 0.97380 0.66600
C 	C 	0.71310 0.93130 0.04770 0.47800
C 	C 	0.31770 0.66430 0.17200 0.49400
C 	C 	0.50230 0.98540 0.28660 0.79700
C 	C 	0.20620 0.92130 0.45640 0.49200
C 	C 	0.62590 0.54400 0.31120 0.49300
C 	C 	0.61550 0.75820 0.52620 0.48400
C 	C 	0.21310 0.56870 0.45230 0.49600
C 	C 	0.18230 0.16430 0.67200 0.49900
C 	C 	0.99770 0.48540 0.78660 0.75400
C 	C 	0.29380 0.42130 0.95640 0.68500
C 	C 	0.87410 0.04400 0.81120 0.34600
C 	C 	0.88450 0.25820 0.02620 0.32200
C 	C 	0.28690 0.06870 0.95230 0.48400
C 	C 	0.68230 0.33570 0.82800 0.48700
C 	C 	0.49770 0.01460 0.71340 0.20200
C 	C 	0.79380 0.07870 0.54360 0.49900
C 	C 	0.37410 0.45600 0.68880 0.49800
C 	C 	0.38450 0.24180 0.47380 0.50600
C 	C 	0.78690 0.43130 0.54770 0.47500
O 	O 	0.79270 0.81421 0.24281 -0.55400
O 	O 	0.92950 0.81942 0.36892 -0.39300
O 	O 	0.99490 0.62772 0.22192 -0.43000
O 	O 	0.98950 0.45506 0.14096 -0.30800
O 	O 	0.73730 0.65293 0.10843 -0.53300
O 	O 	0.78800 0.52449 0.99219 -0.27200
O 	O 	0.07970 0.84933 0.19593 -0.64500
O 	O 	0.10240 0.02475 0.12555 -0.60000
O 	O 	0.03080 0.68339 0.02539 -0.72700
O 	O 	0.11870 0.85055 0.96655 -0.43600
O 	O 	0.83910 0.89754 0.05714 -0.54900
O 	O 	0.61110 0.88986 0.08786 -0.44300
O 	O 	0.29270 0.68579 0.25719 -0.58000
O 	O 	0.42950 0.68058 0.13108 -0.46700
O 	O 	0.49490 0.87228 0.27808 -0.64200
O 	O 	0.48950 0.04494 0.35904 -0.57600
O 	O 	0.23730 0.84707 0.39157 -0.57700
O 	O 	0.28800 0.97551 0.50781 -0.40200
O 	O 	0.57970 0.65067 0.30407 -0.56800
O 	O 	0.60240 0.47525 0.37445 -0.44300
O 	O 	0.53080 0.81661 0.47461 -0.56000
O 	O 	0.61870 0.64945 0.53345 -0.44000
O 	O 	0.33910 0.60246 0.44286 -0.58100
O 	O 	0.11110 0.61014 0.41214 -0.48000
O 	O 	0.20730 0.18579 0.75719 -0.59200
O 	O 	0.07050 0.18058 0.63108 -0.50400
O 	O 	0.00510 0.37228 0.77808 -0.70900
O 	O 	0.01050 0.54494 0.85904 -0.53600
O 	O 	0.26270 0.34707 0.89157 -0.62000
O 	O 	0.21200 0.47551 0.00781 -0.59800
O 	O 	0.92030 0.15067 0.80407 -0.49400
O 	O 	0.89760 0.97525 0.87445 -0.26700
O 	O 	0.96920 0.31661 0.97461 -0.41700
O 	O 	0.88130 0.14945 0.03345 -0.43400
O 	O 	0.16090 0.10246 0.94286 -0.57400
O 	O 	0.38890 0.11014 0.91214 -0.44600
O 	O 	0.70730 0.31421 0.74281 -0.56700
O 	O 	0.57050 0.31942 0.86892 -0.43000
O 	O 	0.50510 0.12772 0.72192 -0.50800
O 	O 	0.51050 0.95506 0.64096 -0.29000
O 	O 	0.76270 0.15293 0.60843 -0.57700
O 	O 	0.71200 0.02449 0.49219 -0.47100
O 	O 	0.42030 0.34933 0.69593 -0.57400
O 	O 	0.39760 0.52475 0.62555 -0.44500
O 	O 	0.46920 0.18339 0.52539 -0.59000
O 	O 	0.38130 0.35055 0.46655 -0.46200
O 	O 	0.66090 0.39754 0.55714 -0.57000
O 	O 	0.88890 0.38986 0.58786 -0.41200
