data_crystal

_cell_length_a 8.84880
_cell_length_b 13.50420
_cell_length_c 21.52850
_cell_angle_alpha 90.00000
_cell_angle_beta  90.00000
_cell_angle_gamma 97.14400

_symmetry_space_group_name_	'P 1'
_symmetry_space_group_name_H-M	'P 1'

loop_
_symmetry_equiv_pos_as_xyz
  x,y,z

loop_
_atom_site_label
_atom_site_type_symbol
_atom_site_fract_x
_atom_site_fract_y
_atom_site_fract_z
_atom_site_charge
Zn	Zn	0.00000 0.25000 0.14762 1.19200
Zn	Zn	0.50000 0.25000 0.64762 1.21100
Zn	Zn	-0.00000 0.75000 0.85238 1.19100
Zn	Zn	0.50000 0.75000 0.35238 1.21100
H 	H 	0.32170 0.20960 0.15090 -0.01500
H 	H 	0.82170 0.20960 0.65090 -0.00200
H 	H 	0.67830 0.29040 0.15090 -0.02000
H 	H 	0.17830 0.29040 0.65090 -0.03400
H 	H 	0.67830 0.79040 0.84910 -0.01900
H 	H 	0.17830 0.79040 0.34910 -0.03200
H 	H 	0.32170 0.70960 0.84910 -0.01300
H 	H 	0.82170 0.70960 0.34910 -0.00100
H 	H 	0.48520 0.11840 0.09800 0.08600
H 	H 	0.98520 0.11840 0.59800 0.10900
H 	H 	0.51480 0.38160 0.09800 0.10600
H 	H 	0.01480 0.38160 0.59800 0.08400
H 	H 	0.51480 0.88160 0.90200 0.10400
H 	H 	0.01480 0.88160 0.40200 0.08100
H 	H 	0.48520 0.61840 0.90200 0.08400
H 	H 	0.98520 0.61840 0.40200 0.10600
H 	H 	0.15500 0.05040 0.96860 0.06100
H 	H 	0.65500 0.05040 0.46860 0.09000
H 	H 	0.84500 0.44960 0.96860 0.14000
H 	H 	0.34500 0.44960 0.46860 0.11000
H 	H 	0.84500 0.94960 0.03140 0.13700
H 	H 	0.34500 0.94960 0.53140 0.10800
H 	H 	0.15500 0.55040 0.03140 0.05800
H 	H 	0.65500 0.55040 0.53140 0.08900
H 	H 	0.99650 0.13920 0.02720 0.07700
H 	H 	0.49650 0.13920 0.52720 -0.01200
H 	H 	0.00350 0.36080 0.02720 -0.10500
H 	H 	0.50350 0.36080 0.52720 -0.01700
H 	H 	0.00350 0.86080 0.97280 -0.10200
H 	H 	0.50350 0.86080 0.47280 -0.01500
H 	H 	0.99650 0.63920 0.97280 0.08000
H 	H 	0.49650 0.63920 0.47280 -0.01000
H 	H 	0.39020 0.98090 0.95400 0.07800
H 	H 	0.89020 0.98090 0.45400 0.05900
H 	H 	0.60980 0.51910 0.95400 0.09100
H 	H 	0.10980 0.51910 0.45400 0.11300
H 	H 	0.60980 0.01910 0.04600 0.07900
H 	H 	0.10980 0.01910 0.54600 0.09700
H 	H 	0.39020 0.48090 0.04600 0.06600
H 	H 	0.89020 0.48090 0.54600 0.04400
H 	H 	0.66700 0.95260 0.20150 0.10600
H 	H 	0.16700 0.95260 0.70150 0.09700
H 	H 	0.33300 0.54740 0.20150 0.09700
H 	H 	0.83300 0.54740 0.70150 0.10700
H 	H 	0.33300 0.04740 0.79850 0.08300
H 	H 	0.83300 0.04740 0.29850 0.09400
H 	H 	0.66700 0.45260 0.79850 0.09300
H 	H 	0.16700 0.45260 0.29850 0.08300
C 	C 	0.28693 0.17539 0.11406 0.07500
C 	C 	0.78693 0.17539 0.61406 0.08800
C 	C 	0.71307 0.32461 0.11406 0.11700
C 	C 	0.21307 0.32461 0.61406 0.10500
C 	C 	0.71307 0.82461 0.88594 0.11400
C 	C 	0.21307 0.82461 0.38594 0.10000
C 	C 	0.28693 0.67539 0.88594 0.07100
C 	C 	0.78693 0.67539 0.38594 0.08400
C 	C 	0.38538 0.12157 0.08249 -0.14200
C 	C 	0.88538 0.12157 0.58249 -0.13300
C 	C 	0.61462 0.37843 0.08249 -0.19400
C 	C 	0.11462 0.37843 0.58249 -0.20600
C 	C 	0.61462 0.87843 0.91751 -0.18700
C 	C 	0.11462 0.87843 0.41751 -0.19600
C 	C 	0.38538 0.62157 0.91751 -0.13500
C 	C 	0.88538 0.62157 0.41751 -0.12300
C 	C 	0.33737 0.07150 0.02748 0.08800
C 	C 	0.83737 0.07150 0.52748 0.08700
C 	C 	0.66263 0.42850 0.02748 0.17000
C 	C 	0.16263 0.42850 0.52748 0.17500
C 	C 	0.66263 0.92850 0.97252 0.15900
C 	C 	0.16263 0.92850 0.47252 0.16000
C 	C 	0.33737 0.57150 0.97252 0.07700
C 	C 	0.83737 0.57150 0.47252 0.07200
C 	C 	0.19073 0.08083 0.00652 -0.09600
C 	C 	0.69073 0.08083 0.50652 -0.13900
C 	C 	0.80927 0.41917 0.00652 -0.24500
C 	C 	0.30927 0.41917 0.50652 -0.20100
C 	C 	0.80927 0.91917 0.99348 -0.23300
C 	C 	0.30927 0.91917 0.49348 -0.19100
C 	C 	0.19073 0.58083 0.99348 -0.08600
C 	C 	0.69073 0.58083 0.49348 -0.12900
C 	C 	0.09708 0.13489 0.04145 -0.05300
C 	C 	0.59708 0.13489 0.54145 0.08200
C 	C 	0.90292 0.36511 0.04145 0.24100
C 	C 	0.40292 0.36511 0.54145 0.10500
C 	C 	0.90292 0.86511 0.95855 0.23500
C 	C 	0.40292 0.86511 0.45855 0.10100
C 	C 	0.09708 0.63489 0.95855 -0.05700
C 	C 	0.59708 0.63489 0.45855 0.07800
C 	C 	0.43108 0.00942 0.99164 -0.07900
C 	C 	0.93108 0.00942 0.49164 0.03400
C 	C 	0.56892 0.49058 0.99164 -0.11900
C 	C 	0.06892 0.49058 0.49164 -0.24300
C 	C 	0.56892 0.99058 0.00836 -0.09300
C 	C 	0.06892 0.99058 0.50836 -0.20500
C 	C 	0.43108 0.50942 0.00836 -0.05300
C 	C 	0.93108 0.50942 0.50836 0.07100
C 	C 	0.81093 0.08416 0.17920 0.33400
C 	C 	0.31093 0.08416 0.67920 0.33300
C 	C 	0.18907 0.41584 0.17920 0.32700
C 	C 	0.68907 0.41584 0.67920 0.33100
C 	C 	0.18907 0.91584 0.82080 0.31700
C 	C 	0.68907 0.91584 0.32080 0.32100
C 	C 	0.81093 0.58416 0.82080 0.32500
C 	C 	0.31093 0.58416 0.32080 0.32200
C 	C 	0.73713 0.00310 0.22001 -0.13400
C 	C 	0.23713 0.00310 0.72001 -0.14700
C 	C 	0.26287 0.49690 0.22001 -0.12500
C 	C 	0.76287 0.49690 0.72001 -0.11600
C 	C 	0.26287 0.99690 0.77999 -0.09300
C 	C 	0.76287 0.99690 0.27999 -0.08700
C 	C 	0.73713 0.50310 0.77999 -0.10500
C 	C 	0.23713 0.50310 0.27999 -0.11400
N 	N 	0.14390 0.18136 0.09472 -0.25900
N 	N 	0.64390 0.18136 0.59472 -0.26900
N 	N 	0.85610 0.31864 0.09472 -0.28700
N 	N 	0.35610 0.31864 0.59472 -0.28200
N 	N 	0.85610 0.81864 0.90528 -0.28500
N 	N 	0.35610 0.81864 0.40528 -0.28000
N 	N 	0.14390 0.68136 0.90528 -0.25700
N 	N 	0.64390 0.68136 0.40528 -0.26800
O 	O 	0.89530 0.15521 0.20659 -0.41700
O 	O 	0.39530 0.15521 0.70659 -0.44900
O 	O 	0.10470 0.34479 0.20659 -0.46600
O 	O 	0.60470 0.34479 0.70659 -0.44400
O 	O 	0.10470 0.84479 0.79341 -0.46300
O 	O 	0.60470 0.84479 0.29341 -0.44100
O 	O 	0.89530 0.65521 0.79341 -0.41500
O 	O 	0.39530 0.65521 0.29341 -0.44600
O 	O 	0.78989 0.07903 0.12225 -0.32100
O 	O 	0.28989 0.07903 0.62225 -0.34100
O 	O 	0.21011 0.42097 0.12225 -0.33600
O 	O 	0.71011 0.42097 0.62225 -0.31800
O 	O 	0.21011 0.92097 0.87775 -0.33200
O 	O 	0.71011 0.92097 0.37775 -0.31500
O 	O 	0.78989 0.57903 0.87775 -0.31700
O 	O 	0.28989 0.57903 0.37775 -0.33700
