data_crystal

_cell_length_a 14.20360
_cell_length_b 14.46010
_cell_length_c 18.07240
_cell_angle_alpha 88.19770
_cell_angle_beta  66.86100
_cell_angle_gamma 60.58510

_symmetry_space_group_name_	'P 1'
_symmetry_space_group_name_H-M	'P 1'

loop_
_symmetry_equiv_pos_as_xyz
  x,y,z

loop_
_atom_site_label
_atom_site_type_symbol
_atom_site_fract_x
_atom_site_fract_y
_atom_site_fract_z
_atom_site_charge
Zn	Zn	0.39316 0.00816 0.36492 1.19200
Zn	Zn	0.80227 0.20428 0.57650 1.22500
Zn	Zn	0.78456 0.58403 0.40527 1.12900
Zn	Zn	0.26624 0.49184 0.13508 1.20100
Zn	Zn	0.08305 0.29572 0.92350 1.22500
Zn	Zn	0.27386 0.91597 0.09473 1.13000
Zn	Zn	0.60684 0.99184 0.63508 1.21700
Zn	Zn	0.19773 0.79572 0.42350 1.22600
Zn	Zn	0.21544 0.41597 0.59473 1.12800
Zn	Zn	0.73376 0.50816 0.86492 1.20900
Zn	Zn	0.91695 0.70428 0.07650 1.22700
Zn	Zn	0.72614 0.08403 0.90527 1.12900
Zn	Zn	0.00000 0.50000 0.50000 1.15400
Zn	Zn	0.50000 0.00000 -0.00000 1.14500
H 	H 	0.95010 0.30890 0.56250 -0.02100
H 	H 	0.21430 0.46170 0.31950 -0.02700
H 	H 	0.99020 0.56390 0.22250 0.03100
H 	H 	0.37990 0.16310 0.49230 -0.04100
H 	H 	0.28630 0.59690 0.52210 -0.05100
H 	H 	0.99480 0.15260 0.74520 0.06100
H 	H 	0.38200 0.96570 0.54070 0.06100
H 	H 	0.16770 0.24620 0.38620 -0.05600
H 	H 	0.32150 0.19110 0.93750 -0.02700
H 	H 	0.49550 0.03830 0.18050 -0.01100
H 	H 	0.27660 0.93610 0.27750 -0.02900
H 	H 	0.53530 0.33690 0.00770 -0.03500
H 	H 	0.90530 0.90310 0.97790 -0.04300
H 	H 	0.39260 0.34740 0.75480 0.01200
H 	H 	0.38840 0.53430 0.95930 0.04100
H 	H 	0.30010 0.25380 0.11380 -0.05500
H 	H 	0.04990 0.69110 0.43750 -0.03600
H 	H 	0.78570 0.53830 0.68050 -0.02400
H 	H 	0.00980 0.43610 0.77750 -0.08300
H 	H 	0.62010 0.83690 0.50770 -0.03400
H 	H 	0.71370 0.40310 0.47790 -0.05200
H 	H 	0.00520 0.84740 0.25480 -0.02500
H 	H 	0.61800 0.03430 0.45930 -0.02600
H 	H 	0.83230 0.75380 0.61380 -0.03700
H 	H 	0.67850 0.80890 0.06250 -0.02900
H 	H 	0.50450 0.96170 0.81950 -0.03700
H 	H 	0.72340 0.06390 0.72250 -0.02900
H 	H 	0.46470 0.66310 0.99230 -0.03800
H 	H 	0.09470 0.09690 0.02210 -0.06100
H 	H 	0.60740 0.65260 0.24520 0.02600
H 	H 	0.61160 0.46570 0.04070 -0.00300
H 	H 	0.69990 0.74620 0.88620 -0.03900
C 	C 	0.90100 0.34680 0.53680 0.10700
C 	C 	0.99100 0.07080 0.62240 0.36700
C 	C 	0.21310 0.00350 0.56990 -0.11600
C 	C 	0.38390 0.03660 0.67140 0.26300
C 	C 	0.14470 0.48730 0.31250 0.09700
C 	C 	0.02340 0.54270 0.25970 -0.01300
C 	C 	0.31830 0.20340 0.47680 0.09400
C 	C 	0.28080 0.05430 0.65650 -0.03900
C 	C 	0.22670 0.60260 0.50900 0.11300
C 	C 	0.24130 0.93590 0.49490 0.42800
C 	C 	0.12240 0.17430 0.80090 0.32500
C 	C 	0.07350 0.11320 0.70460 -0.06400
C 	C 	0.16190 0.11060 0.71920 -0.05800
C 	C 	0.30420 0.00200 0.58240 -0.05700
C 	C 	0.20270 0.24900 0.41940 0.10600
C 	C 	0.09580 0.05980 0.63200 -0.06700
C 	C 	0.28460 0.15320 0.96320 0.10800
C 	C 	0.18420 0.42920 0.87760 0.35300
C 	C 	0.28650 0.49650 0.93010 -0.04700
C 	C 	0.59190 0.46340 0.82860 0.30500
C 	C 	0.44450 0.01270 0.18750 0.02700
C 	C 	0.32580 0.95730 0.24030 0.10000
C 	C 	0.49850 0.29660 0.02320 0.05700
C 	C 	0.49160 0.44570 0.84350 -0.04200
C 	C 	0.83830 0.89740 0.99100 0.15100
C 	C 	0.17210 0.56410 0.00510 0.32300
C 	C 	0.59760 0.32570 0.69910 0.33800
C 	C 	0.39130 0.38680 0.79540 0.01100
C 	C 	0.49170 0.38940 0.78080 -0.07500
C 	C 	0.38860 0.49800 0.91760 -0.02700
C 	C 	0.37110 0.25100 0.08060 0.10400
C 	C 	0.28760 0.44020 0.86800 -0.07400
C 	C 	0.09900 0.65320 0.46320 0.10300
C 	C 	0.00900 0.92920 0.37760 0.31800
C 	C 	0.78690 0.99650 0.43010 -0.10300
C 	C 	0.61610 0.96340 0.32860 0.36400
C 	C 	0.85530 0.51270 0.68750 0.09900
C 	C 	0.97660 0.45730 0.74030 0.19300
C 	C 	0.68170 0.79660 0.52320 0.09900
C 	C 	0.71920 0.94570 0.34350 -0.08600
C 	C 	0.77330 0.39740 0.49100 0.11600
C 	C 	0.75870 0.06410 0.50510 0.39200
C 	C 	0.87760 0.82570 0.19910 0.34200
C 	C 	0.92650 0.88680 0.29540 0.05200
C 	C 	0.83810 0.88940 0.28080 -0.06600
C 	C 	0.69580 0.99800 0.41760 0.07000
C 	C 	0.79730 0.75100 0.58060 0.11300
C 	C 	0.90420 0.94020 0.36800 -0.03000
C 	C 	0.71540 0.84680 0.03680 0.10400
C 	C 	0.81580 0.57080 0.12240 0.33400
C 	C 	0.71350 0.50350 0.06990 -0.16300
C 	C 	0.40810 0.53660 0.17140 0.31900
C 	C 	0.55550 0.98730 0.81250 0.16000
C 	C 	0.67420 0.04270 0.75970 0.09200
C 	C 	0.50150 0.70340 0.97680 0.13200
C 	C 	0.50840 0.55430 0.15650 -0.08100
C 	C 	0.16170 0.10260 0.00900 0.06600
C 	C 	0.82790 0.43590 0.99490 0.48400
C 	C 	0.40240 0.67430 0.30090 0.32900
C 	C 	0.60870 0.61320 0.20460 -0.02600
C 	C 	0.50830 0.61060 0.21920 -0.05000
C 	C 	0.61140 0.50200 0.08240 0.03500
C 	C 	0.62890 0.74900 0.91940 0.11400
C 	C 	0.71240 0.55980 0.13200 -0.02500
N 	N 	0.04340 0.50470 0.37070 -0.25000
N 	N 	0.96381 0.54058 0.33660 -0.20700
N 	N 	0.18221 0.53918 0.52820 -0.26600
N 	N 	0.82310 0.32480 0.53100 -0.27100
N 	N 	0.29960 0.16190 0.42190 -0.29600
N 	N 	0.13770 0.51030 0.24150 -0.27700
N 	N 	0.23910 0.30770 0.50590 -0.25800
N 	N 	0.90063 0.42804 0.50210 -0.23300
N 	N 	0.16310 0.33760 0.46820 -0.23400
N 	N 	0.41880 0.99530 0.12930 -0.20500
N 	N 	0.34099 0.95942 0.16340 -0.25100
N 	N 	0.74959 0.96082 0.97180 -0.24500
N 	N 	0.17890 0.17520 0.96900 -0.25300
N 	N 	0.38340 0.33810 0.07810 -0.28900
N 	N 	0.38950 0.98970 0.25850 -0.26200
N 	N 	0.55270 0.19230 0.99410 -0.22500
N 	N 	0.33077 0.07196 0.99790 -0.22600
N 	N 	0.46890 0.16240 0.03180 -0.24900
N 	N 	0.95660 0.49530 0.62930 -0.21400
N 	N 	0.03619 0.45942 0.66340 -0.29200
N 	N 	0.81779 0.46082 0.47180 -0.26200
N 	N 	0.17690 0.67520 0.46900 -0.27300
N 	N 	0.70040 0.83810 0.57810 -0.28500
N 	N 	0.86230 0.48970 0.75850 -0.30200
N 	N 	0.76090 0.69230 0.49410 -0.25400
N 	N 	0.09937 0.57196 0.49790 -0.24600
N 	N 	0.83690 0.66240 0.53180 -0.22100
N 	N 	0.58120 0.00470 0.87070 -0.25100
N 	N 	0.65901 0.04058 0.83660 -0.25200
N 	N 	0.25041 0.03918 0.02820 -0.28600
N 	N 	0.82110 0.82480 0.03100 -0.28500
N 	N 	0.61660 0.66190 0.92190 -0.29200
N 	N 	0.61050 0.01030 0.74150 -0.31500
N 	N 	0.44730 0.80770 0.00590 -0.28300
N 	N 	0.66923 0.92804 0.00210 -0.24600
N 	N 	0.53110 0.83760 0.96820 -0.20600
O 	O 	0.15770 0.23700 0.80120 -0.44900
O 	O 	0.96829 0.12002 0.56800 -0.44500
O 	O 	0.05510 0.16450 0.86490 -0.37800
O 	O 	0.68383 0.07154 0.57480 -0.52100
O 	O 	0.18905 0.88440 0.50770 -0.47800
O 	O 	0.39800 0.99750 0.72950 -0.29100
O 	O 	0.54130 0.94120 0.38220 -0.45300
O 	O 	0.92720 0.03940 0.67160 -0.33000
O 	O 	0.69590 0.26300 0.69880 -0.44700
O 	O 	0.15631 0.37998 0.93200 -0.44400
O 	O 	0.58450 0.33550 0.63510 -0.37200
O 	O 	0.83017 0.42846 0.92520 -0.52000
O 	O 	0.08115 0.61560 0.99230 -0.43900
O 	O 	0.62500 0.50250 0.77050 -0.32800
O 	O 	0.36470 0.55880 0.11780 -0.46400
O 	O 	0.13820 0.46060 0.82840 -0.33400
O 	O 	0.84230 0.76300 0.19880 -0.44500
O 	O 	0.03171 0.87998 0.43200 -0.44500
O 	O 	0.94490 0.83550 0.13510 -0.35900
O 	O 	0.31617 0.92846 0.42520 -0.51200
O 	O 	0.81095 0.11560 0.49230 -0.47200
O 	O 	0.60200 0.00250 0.27050 -0.37600
O 	O 	0.45870 0.05880 0.61780 -0.45300
O 	O 	0.07280 0.96060 0.32840 -0.32400
O 	O 	0.30410 0.73700 0.30120 -0.44700
O 	O 	0.84369 0.62002 0.06800 -0.44500
O 	O 	0.41550 0.66450 0.36490 -0.36800
O 	O 	0.16983 0.57154 0.07480 -0.51300
O 	O 	0.91885 0.38440 0.00770 -0.50400
O 	O 	0.37500 0.49750 0.22950 -0.33700
O 	O 	0.63530 0.44120 0.88220 -0.44200
O 	O 	0.86180 0.53940 0.17160 -0.32100
