data_crystal

_cell_length_a 4.72970
_cell_length_b 11.18360
_cell_length_c 11.96080
_cell_angle_alpha 117.87200
_cell_angle_beta  92.55300
_cell_angle_gamma 90.00000

_symmetry_space_group_name_	'P 1'
_symmetry_space_group_name_H-M	'P 1'

loop_
_symmetry_equiv_pos_as_xyz
  x,y,z

loop_
_atom_site_label
_atom_site_type_symbol
_atom_site_fract_x
_atom_site_fract_y
_atom_site_fract_z
_atom_site_charge
Fe	Fe	0.25000 0.41778 -0.00000 1.05300
Fe	Fe	0.75000 0.58222 -0.00000 1.04800
H 	H 	0.53170 0.00400 0.71260 0.06200
H 	H 	0.65520 0.83010 0.52780 0.06500
H 	H 	0.07980 0.25610 0.67300 0.06900
H 	H 	0.96830 0.29140 0.28740 0.01600
H 	H 	0.84480 0.30230 0.47220 0.06600
H 	H 	0.42020 0.58310 0.32700 0.05400
H 	H 	0.46830 0.99600 0.28740 0.01600
H 	H 	0.34480 0.16990 0.47220 0.06300
H 	H 	0.92020 0.74390 0.32700 0.03900
H 	H 	0.03170 0.70860 0.71260 0.06200
H 	H 	0.15520 0.69770 0.52780 0.06200
H 	H 	0.57980 0.41690 0.67300 0.06100
C 	C 	0.70660 0.26632 0.83164 0.35200
C 	C 	0.79390 0.14966 0.71072 -0.05700
C 	C 	0.66560 0.01992 0.66684 0.02900
C 	C 	0.73700 0.91563 0.55386 -0.09100
C 	C 	0.93580 0.93485 0.47810 -0.02300
C 	C 	0.99150 0.17123 0.64046 -0.07200
C 	C 	0.79340 0.43468 0.16836 0.36500
C 	C 	0.70610 0.43894 0.28928 -0.11100
C 	C 	0.83440 0.35308 0.33316 0.02800
C 	C 	0.76300 0.36177 0.44614 -0.10700
C 	C 	0.56420 0.45675 0.52190 0.03900
C 	C 	0.50850 0.53077 0.35954 -0.02500
C 	C 	0.29340 0.73368 0.16836 0.37600
C 	C 	0.20610 0.85034 0.28928 -0.12000
C 	C 	0.33440 0.98008 0.33316 0.00600
C 	C 	0.26300 0.08437 0.44614 -0.08800
C 	C 	0.06420 0.06515 0.52190 0.07100
C 	C 	0.00850 0.82877 0.35954 0.00500
C 	C 	0.20660 0.56532 0.83164 0.35500
C 	C 	0.29390 0.56106 0.71072 -0.06100
C 	C 	0.16560 0.64692 0.66684 0.00400
C 	C 	0.23700 0.63823 0.55386 -0.07200
C 	C 	0.43580 0.54325 0.47810 0.01500
C 	C 	0.49150 0.46923 0.64046 -0.05300
O 	O 	0.87000 0.37130 0.88072 -0.39600
O 	O 	0.47470 0.25695 0.87430 -0.31600
O 	O 	0.63000 0.49058 0.11928 -0.55500
O 	O 	0.02530 0.38265 0.12570 -0.47400
O 	O 	0.13000 0.62870 0.11928 -0.55400
O 	O 	0.52530 0.74305 0.12570 -0.48700
O 	O 	0.37000 0.50942 0.88072 -0.39500
O 	O 	0.97470 0.61735 0.87430 -0.32400
