data_crystal

_cell_length_a 9.29450
_cell_length_b 19.43050
_cell_length_c 19.43050
_cell_angle_alpha 67.72910
_cell_angle_beta  76.16230
_cell_angle_gamma 76.16240

_symmetry_space_group_name_	'P 1'
_symmetry_space_group_name_H-M	'P 1'

loop_
_symmetry_equiv_pos_as_xyz
  x,y,z

loop_
_atom_site_label
_atom_site_type_symbol
_atom_site_fract_x
_atom_site_fract_y
_atom_site_fract_z
_atom_site_charge
Zn	Zn	0.63876 0.51401 0.51401 1.19600
Zn	Zn	0.16678 0.98599 0.98599 1.19100
Zn	Zn	0.83322 0.01401 0.01401 1.19000
Zn	Zn	0.36124 0.48599 0.48599 1.19500
H 	H 	0.89310 0.55100 0.28640 0.01700
H 	H 	0.01370 0.54880 0.16740 0.07700
H 	H 	0.64780 0.48650 0.14150 0.07300
H 	H 	0.52750 0.49280 0.25900 0.01600
H 	H 	0.23050 0.94900 0.21360 0.01700
H 	H 	0.22990 0.95120 0.33260 0.07800
H 	H 	0.77580 0.01350 0.35850 0.07100
H 	H 	0.77930 0.00720 0.24100 0.00700
H 	H 	0.76950 0.78640 0.05100 0.01700
H 	H 	0.77010 0.66740 0.04880 0.07800
H 	H 	0.22420 0.64150 0.98650 0.07100
H 	H 	0.22070 0.75900 0.99280 0.00700
H 	H 	0.10690 0.71360 0.44900 0.01700
H 	H 	0.98630 0.83260 0.45120 0.07700
H 	H 	0.35220 0.85850 0.51350 0.07300
H 	H 	0.47250 0.74100 0.50720 0.01600
H 	H 	0.10690 0.44900 0.71360 0.01700
H 	H 	0.98630 0.45120 0.83260 0.07700
H 	H 	0.35220 0.51350 0.85850 0.07300
H 	H 	0.47250 0.50720 0.74100 0.01600
H 	H 	0.76950 0.05100 0.78640 0.01700
H 	H 	0.77010 0.04880 0.66740 0.07800
H 	H 	0.22420 0.98650 0.64150 0.07100
H 	H 	0.22070 0.99280 0.75900 0.00700
H 	H 	0.23050 0.21360 0.94900 0.01700
H 	H 	0.22990 0.33260 0.95120 0.07800
H 	H 	0.77580 0.35850 0.01350 0.07100
H 	H 	0.77930 0.24100 0.00720 0.00700
H 	H 	0.89310 0.28640 0.55100 0.01700
H 	H 	0.01370 0.16740 0.54880 0.07700
H 	H 	0.64780 0.14150 0.48650 0.07300
H 	H 	0.52750 0.25900 0.49280 0.01600
H 	H 	0.86510 0.40990 0.09010 0.04900
H 	H 	0.86510 0.09010 0.40990 0.04900
H 	H 	0.13490 0.59010 0.90990 0.04900
H 	H 	0.13490 0.90990 0.59010 0.04900
C 	C 	0.62433 0.52197 0.36237 0.41900
C 	C 	0.69757 0.52223 0.28443 -0.14600
C 	C 	0.84294 0.53859 0.25653 0.06500
C 	C 	0.91515 0.53685 0.18625 -0.13100
C 	C 	0.84003 0.51717 0.14217 0.07200
C 	C 	0.69787 0.50033 0.17033 -0.13700
C 	C 	0.62679 0.50361 0.24061 0.06800
C 	C 	0.92185 0.51055 0.06815 -0.01500
C 	C 	0.00867 0.97803 0.13763 0.42000
C 	C 	0.00423 0.97777 0.21557 -0.15200
C 	C 	0.13806 0.96141 0.24347 0.06900
C 	C 	0.13825 0.96315 0.31375 -0.13300
C 	C 	0.99937 0.98283 0.35783 0.07700
C 	C 	0.86853 0.99967 0.32967 -0.13800
C 	C 	0.87101 0.99639 0.25939 0.08200
C 	C 	0.00055 0.98945 0.43185 -0.01600
C 	C 	0.99133 0.86237 0.02197 0.42000
C 	C 	0.99577 0.78443 0.02223 -0.15200
C 	C 	0.86194 0.75653 0.03859 0.06900
C 	C 	0.86175 0.68625 0.03685 -0.13300
C 	C 	0.00063 0.64217 0.01717 0.07700
C 	C 	0.13147 0.67033 0.00033 -0.13800
C 	C 	0.12899 0.74061 0.00361 0.08200
C 	C 	0.99945 0.56815 0.01055 -0.01600
C 	C 	0.37567 0.63763 0.47803 0.41900
C 	C 	0.30243 0.71557 0.47777 -0.14600
C 	C 	0.15706 0.74347 0.46141 0.06500
C 	C 	0.08485 0.81375 0.46315 -0.13100
C 	C 	0.15997 0.85783 0.48283 0.07200
C 	C 	0.30213 0.82967 0.49967 -0.13700
C 	C 	0.37321 0.75939 0.49639 0.06800
C 	C 	0.07815 0.93185 0.48945 -0.01500
C 	C 	0.37567 0.47803 0.63763 0.41900
C 	C 	0.30243 0.47777 0.71557 -0.14600
C 	C 	0.15706 0.46141 0.74347 0.06500
C 	C 	0.08485 0.46315 0.81375 -0.13100
C 	C 	0.15997 0.48283 0.85783 0.07200
C 	C 	0.30213 0.49967 0.82967 -0.13700
C 	C 	0.37321 0.49639 0.75939 0.06800
C 	C 	0.07815 0.48945 0.93185 -0.01500
C 	C 	0.99133 0.02197 0.86237 0.42000
C 	C 	0.99577 0.02223 0.78443 -0.15200
C 	C 	0.86194 0.03859 0.75653 0.06900
C 	C 	0.86175 0.03685 0.68625 -0.13300
C 	C 	0.00063 0.01717 0.64217 0.07700
C 	C 	0.13147 0.00033 0.67033 -0.13800
C 	C 	0.12899 0.00361 0.74061 0.08200
C 	C 	0.99945 0.01055 0.56815 -0.01600
C 	C 	0.00867 0.13763 0.97803 0.42000
C 	C 	0.00423 0.21557 0.97777 -0.15200
C 	C 	0.13806 0.24347 0.96141 0.06900
C 	C 	0.13825 0.31375 0.96315 -0.13300
C 	C 	0.99937 0.35783 0.98283 0.07700
C 	C 	0.86853 0.32967 0.99967 -0.13800
C 	C 	0.87101 0.25939 0.99639 0.08200
C 	C 	0.00055 0.43185 0.98945 -0.01600
C 	C 	0.62433 0.36237 0.52197 0.41900
C 	C 	0.69757 0.28443 0.52223 -0.14600
C 	C 	0.84294 0.25653 0.53859 0.06500
C 	C 	0.91515 0.18625 0.53685 -0.13100
C 	C 	0.84003 0.14217 0.51717 0.07200
C 	C 	0.69787 0.17033 0.50033 -0.13700
C 	C 	0.62679 0.24061 0.50361 0.06800
C 	C 	0.92185 0.06815 0.51055 -0.01500
C 	C 	0.92220 0.44630 0.05370 -0.05900
C 	C 	0.92220 0.05370 0.44630 -0.05900
C 	C 	0.07780 0.55370 0.94630 -0.05900
C 	C 	0.07780 0.94630 0.55370 -0.05900
O 	O 	0.70207 0.53039 0.40167 -0.48700
O 	O 	0.49069 0.51108 0.38134 -0.48800
O 	O 	0.13413 0.96961 0.09833 -0.48400
O 	O 	0.88311 0.98892 0.11866 -0.48400
O 	O 	0.86587 0.90167 0.03039 -0.48400
O 	O 	0.11689 0.88134 0.01108 -0.48400
O 	O 	0.29793 0.59833 0.46961 -0.48700
O 	O 	0.50931 0.61866 0.48892 -0.48800
O 	O 	0.29793 0.46961 0.59833 -0.48700
O 	O 	0.50931 0.48892 0.61866 -0.48800
O 	O 	0.86587 0.03039 0.90167 -0.48400
O 	O 	0.11689 0.01108 0.88134 -0.48400
O 	O 	0.13413 0.09833 0.96961 -0.48400
O 	O 	0.88311 0.11866 0.98892 -0.48400
O 	O 	0.70207 0.40167 0.53039 -0.48700
O 	O 	0.49069 0.38134 0.51108 -0.48800
