data_crystal

_cell_length_a 17.07100
_cell_length_b 17.07100
_cell_length_c 17.07100
_cell_angle_alpha 90.00000
_cell_angle_beta  90.00000
_cell_angle_gamma 90.00000

_symmetry_space_group_name_	'P 1'
_symmetry_space_group_name_H-M	'P 1'

loop_
_symmetry_equiv_pos_as_xyz
  x,y,z

loop_
_atom_site_label
_atom_site_type_symbol
_atom_site_fract_x
_atom_site_fract_y
_atom_site_fract_z
_atom_site_charge
Zn	Zn	0.50000 0.00000 0.75000 1.13800
Zn	Zn	0.00000 0.50000 0.25000 1.13600
Zn	Zn	-0.00000 0.75000 0.50000 1.13800
Zn	Zn	0.50000 0.25000 -0.00000 1.13600
Zn	Zn	0.75000 0.50000 -0.00000 1.13800
Zn	Zn	0.25000 0.00000 0.50000 1.13600
Zn	Zn	0.75000 0.00000 0.50000 1.13700
Zn	Zn	0.25000 0.50000 -0.00000 1.13500
Zn	Zn	0.50000 0.00000 0.25000 1.13500
Zn	Zn	-0.00000 0.50000 0.75000 1.13700
Zn	Zn	0.00000 0.25000 0.50000 1.13500
Zn	Zn	0.50000 0.75000 -0.00000 1.13700
H 	H 	0.41810 0.84720 0.68170 -0.01000
H 	H 	0.91810 0.34720 0.18170 0.00200
H 	H 	0.84720 0.68170 0.41810 -0.01000
H 	H 	0.34720 0.18170 0.91810 0.00200
H 	H 	0.68170 0.41810 0.84720 -0.01000
H 	H 	0.18170 0.91810 0.34720 0.00200
H 	H 	0.84720 0.58190 0.31830 -0.00900
H 	H 	0.34720 0.08190 0.81830 -0.02500
H 	H 	0.68170 0.15280 0.58190 -0.00700
H 	H 	0.18170 0.65280 0.08190 -0.02900
H 	H 	0.41810 0.31830 0.15280 -0.00700
H 	H 	0.91810 0.81830 0.65280 0.02000
H 	H 	0.58190 0.15280 0.68170 -0.00700
H 	H 	0.08190 0.65280 0.18170 -0.02900
H 	H 	0.31830 0.41810 0.15280 -0.00700
H 	H 	0.81830 0.91810 0.65280 0.02000
H 	H 	0.58190 0.84720 0.31830 -0.00900
H 	H 	0.08190 0.34720 0.81830 -0.02500
H 	H 	0.15280 0.31830 0.41810 -0.00700
H 	H 	0.65280 0.81830 0.91810 0.02000
H 	H 	0.31830 0.58190 0.84720 -0.00900
H 	H 	0.81830 0.08190 0.34720 -0.02500
H 	H 	0.15280 0.41810 0.31830 -0.00700
H 	H 	0.65280 0.91810 0.81830 0.02000
H 	H 	0.31830 0.84720 0.58190 -0.00900
H 	H 	0.81830 0.34720 0.08190 -0.02500
H 	H 	0.58190 0.68170 0.15280 -0.00700
H 	H 	0.08190 0.18170 0.65280 -0.02900
H 	H 	0.15280 0.68170 0.58190 -0.00700
H 	H 	0.65280 0.18170 0.08190 -0.02900
H 	H 	0.68170 0.84720 0.41810 -0.01000
H 	H 	0.18170 0.34720 0.91810 0.00200
H 	H 	0.41810 0.68170 0.84720 -0.01000
H 	H 	0.91810 0.18170 0.34720 0.00200
H 	H 	0.84720 0.41810 0.68170 -0.01000
H 	H 	0.34720 0.91810 0.18170 0.00200
H 	H 	0.84720 0.31830 0.58190 -0.00900
H 	H 	0.34720 0.81830 0.08190 -0.02500
H 	H 	0.15280 0.58190 0.68170 -0.00700
H 	H 	0.65280 0.08190 0.18170 -0.02900
H 	H 	0.31830 0.15280 0.41810 -0.00700
H 	H 	0.81830 0.65280 0.91810 0.02000
H 	H 	0.58190 0.31830 0.84720 -0.00900
H 	H 	0.08190 0.81830 0.34720 -0.02500
H 	H 	0.41810 0.15280 0.31830 -0.00700
H 	H 	0.91810 0.65280 0.81830 0.02000
H 	H 	0.68170 0.58190 0.15280 -0.00700
H 	H 	0.18170 0.08190 0.65280 -0.02900
H 	H 	0.40430 0.11680 0.59570 0.14900
H 	H 	0.90430 0.61680 0.09570 0.23200
H 	H 	0.11680 0.59570 0.40430 0.14900
H 	H 	0.61680 0.09570 0.90430 0.23200
H 	H 	0.59570 0.40430 0.11680 0.14900
H 	H 	0.09570 0.90430 0.61680 0.23200
H 	H 	0.59570 0.88320 0.59570 0.30200
H 	H 	0.09570 0.38320 0.09570 0.13800
H 	H 	0.40430 0.40430 0.88320 0.30200
H 	H 	0.90430 0.90430 0.38320 0.30200
H 	H 	0.59570 0.11680 0.40430 0.14900
H 	H 	0.09570 0.61680 0.90430 0.23200
H 	H 	0.88320 0.40430 0.40430 0.30200
H 	H 	0.38320 0.90430 0.90430 0.30200
H 	H 	0.40430 0.59570 0.11680 0.14900
H 	H 	0.90430 0.09570 0.61680 0.23200
H 	H 	0.59570 0.59570 0.88320 0.30200
H 	H 	0.09570 0.09570 0.38320 0.13800
H 	H 	0.88320 0.59570 0.59570 0.30200
H 	H 	0.38320 0.09570 0.09570 0.13800
H 	H 	0.11680 0.40430 0.59570 0.14900
H 	H 	0.61680 0.90430 0.09570 0.23200
H 	H 	0.40430 0.88320 0.40430 0.30200
H 	H 	0.90430 0.38320 0.90430 0.30200
H 	H 	0.31580 0.11860 0.61960 0.15400
H 	H 	0.81580 0.61860 0.11960 0.22300
H 	H 	0.11860 0.61960 0.31580 0.15400
H 	H 	0.61860 0.11960 0.81580 0.22300
H 	H 	0.61960 0.31580 0.11860 0.15400
H 	H 	0.11960 0.81580 0.61860 0.22300
H 	H 	0.11860 0.68420 0.38040 0.15300
H 	H 	0.61860 0.18420 0.88040 0.24300
H 	H 	0.61960 0.88140 0.68420 0.30300
H 	H 	0.11960 0.38140 0.18420 0.17100
H 	H 	0.31580 0.38040 0.88140 0.30100
H 	H 	0.81580 0.88040 0.38140 0.27400
H 	H 	0.68420 0.88140 0.61960 0.30300
H 	H 	0.18420 0.38140 0.11960 0.17100
H 	H 	0.38040 0.31580 0.88140 0.30100
H 	H 	0.88040 0.81580 0.38140 0.27400
H 	H 	0.68420 0.11860 0.38040 0.15300
H 	H 	0.18420 0.61860 0.88040 0.24300
H 	H 	0.88140 0.38040 0.31580 0.30100
H 	H 	0.38140 0.88040 0.81580 0.27400
H 	H 	0.38040 0.68420 0.11860 0.15300
H 	H 	0.88040 0.18420 0.61860 0.24300
H 	H 	0.88140 0.31580 0.38040 0.30100
H 	H 	0.38140 0.81580 0.88040 0.27400
H 	H 	0.38040 0.11860 0.68420 0.15300
H 	H 	0.88040 0.61860 0.18420 0.24300
H 	H 	0.68420 0.61960 0.88140 0.30300
H 	H 	0.18420 0.11960 0.38140 0.17100
H 	H 	0.88140 0.61960 0.68420 0.30300
H 	H 	0.38140 0.11960 0.18420 0.17100
H 	H 	0.61960 0.11860 0.31580 0.15400
H 	H 	0.11960 0.61860 0.81580 0.22300
H 	H 	0.31580 0.61960 0.11860 0.15400
H 	H 	0.81580 0.11960 0.61860 0.22300
H 	H 	0.11860 0.31580 0.61960 0.15400
H 	H 	0.61860 0.81580 0.11960 0.22300
H 	H 	0.11860 0.38040 0.68420 0.15300
H 	H 	0.61860 0.88040 0.18420 0.24300
H 	H 	0.88140 0.68420 0.61960 0.30300
H 	H 	0.38140 0.18420 0.11960 0.17100
H 	H 	0.38040 0.88140 0.31580 0.30100
H 	H 	0.88040 0.38140 0.81580 0.27400
H 	H 	0.68420 0.38040 0.11860 0.15300
H 	H 	0.18420 0.88040 0.61860 0.24300
H 	H 	0.31580 0.88140 0.38040 0.30100
H 	H 	0.81580 0.38140 0.88040 0.27400
H 	H 	0.61960 0.68420 0.88140 0.30300
H 	H 	0.11960 0.18420 0.38140 0.17100
C 	C 	0.36470 0.01100 0.63530 0.03300
C 	C 	0.86470 0.51100 0.13530 0.26900
C 	C 	0.01100 0.63530 0.36470 0.03300
C 	C 	0.51100 0.13530 0.86470 0.26900
C 	C 	0.63530 0.36470 0.01100 0.03300
C 	C 	0.13530 0.86470 0.51100 0.26900
C 	C 	0.63530 0.98900 0.63530 0.50200
C 	C 	0.13530 0.48900 0.13530 0.21200
C 	C 	0.36470 0.36470 0.98900 0.49800
C 	C 	0.86470 0.86470 0.48900 0.31500
C 	C 	0.63530 0.01100 0.36470 0.03300
C 	C 	0.13530 0.51100 0.86470 0.26900
C 	C 	0.98900 0.36470 0.36470 0.49800
C 	C 	0.48900 0.86470 0.86470 0.31500
C 	C 	0.36470 0.63530 0.01100 0.03300
C 	C 	0.86470 0.13530 0.51100 0.26900
C 	C 	0.63530 0.63530 0.98900 0.50200
C 	C 	0.13530 0.13530 0.48900 0.21200
C 	C 	0.98900 0.63530 0.63530 0.50200
C 	C 	0.48900 0.13530 0.13530 0.21200
C 	C 	0.01100 0.36470 0.63530 0.03300
C 	C 	0.51100 0.86470 0.13530 0.26900
C 	C 	0.36470 0.98900 0.36470 0.49800
C 	C 	0.86470 0.48900 0.86470 0.31500
C 	C 	0.39440 0.89150 0.66070 -0.02000
C 	C 	0.89440 0.39150 0.16070 -0.02800
C 	C 	0.89150 0.66070 0.39440 -0.02000
C 	C 	0.39150 0.16070 0.89440 -0.02800
C 	C 	0.66070 0.39440 0.89150 -0.02000
C 	C 	0.16070 0.89440 0.39150 -0.02800
C 	C 	0.89150 0.60560 0.33930 -0.01900
C 	C 	0.39150 0.10560 0.83930 -0.03100
C 	C 	0.66070 0.10850 0.60560 -0.03800
C 	C 	0.16070 0.60850 0.10560 -0.04200
C 	C 	0.39440 0.33930 0.10850 -0.04000
C 	C 	0.89440 0.83930 0.60850 -0.01500
C 	C 	0.60560 0.10850 0.66070 -0.03800
C 	C 	0.10560 0.60850 0.16070 -0.04200
C 	C 	0.33930 0.39440 0.10850 -0.04000
C 	C 	0.83930 0.89440 0.60850 -0.01500
C 	C 	0.60560 0.89150 0.33930 -0.01900
C 	C 	0.10560 0.39150 0.83930 -0.03100
C 	C 	0.10850 0.33930 0.39440 -0.04000
C 	C 	0.60850 0.83930 0.89440 -0.01500
C 	C 	0.33930 0.60560 0.89150 -0.01900
C 	C 	0.83930 0.10560 0.39150 -0.03100
C 	C 	0.10850 0.39440 0.33930 -0.04000
C 	C 	0.60850 0.89440 0.83930 -0.01500
C 	C 	0.33930 0.89150 0.60560 -0.01900
C 	C 	0.83930 0.39150 0.10560 -0.03100
C 	C 	0.60560 0.66070 0.10850 -0.03800
C 	C 	0.10560 0.16070 0.60850 -0.04200
C 	C 	0.10850 0.66070 0.60560 -0.03800
C 	C 	0.60850 0.16070 0.10560 -0.04200
C 	C 	0.66070 0.89150 0.39440 -0.02000
C 	C 	0.16070 0.39150 0.89440 -0.02800
C 	C 	0.39440 0.66070 0.89150 -0.02000
C 	C 	0.89440 0.16070 0.39150 -0.02800
C 	C 	0.89150 0.39440 0.66070 -0.02000
C 	C 	0.39150 0.89440 0.16070 -0.02800
C 	C 	0.89150 0.33930 0.60560 -0.01900
C 	C 	0.39150 0.83930 0.10560 -0.03100
C 	C 	0.10850 0.60560 0.66070 -0.03800
C 	C 	0.60850 0.10560 0.16070 -0.04200
C 	C 	0.33930 0.10850 0.39440 -0.04000
C 	C 	0.83930 0.60850 0.89440 -0.01500
C 	C 	0.60560 0.33930 0.89150 -0.01900
C 	C 	0.10560 0.83930 0.39150 -0.03100
C 	C 	0.39440 0.10850 0.33930 -0.04000
C 	C 	0.89440 0.60850 0.83930 -0.01500
C 	C 	0.66070 0.60560 0.10850 -0.03800
C 	C 	0.16070 0.10560 0.60850 -0.04200
C 	C 	0.36660 0.09890 0.63340 -0.57300
C 	C 	0.86660 0.59890 0.13340 -0.81100
C 	C 	0.09890 0.63340 0.36660 -0.57300
C 	C 	0.59890 0.13340 0.86660 -0.81100
C 	C 	0.63340 0.36660 0.09890 -0.57300
C 	C 	0.13340 0.86660 0.59890 -0.81100
C 	C 	0.63340 0.90110 0.63340 -1.02800
C 	C 	0.13340 0.40110 0.13340 -0.67700
C 	C 	0.36660 0.36660 0.90110 -1.02700
C 	C 	0.86660 0.86660 0.40110 -0.90300
C 	C 	0.63340 0.09890 0.36660 -0.57300
C 	C 	0.13340 0.59890 0.86660 -0.81100
C 	C 	0.90110 0.36660 0.36660 -1.02700
C 	C 	0.40110 0.86660 0.86660 -0.90300
C 	C 	0.36660 0.63340 0.09890 -0.57300
C 	C 	0.86660 0.13340 0.59890 -0.81100
C 	C 	0.63340 0.63340 0.90110 -1.02800
C 	C 	0.13340 0.13340 0.40110 -0.67700
C 	C 	0.90110 0.63340 0.63340 -1.02800
C 	C 	0.40110 0.13340 0.13340 -0.67700
C 	C 	0.09890 0.36660 0.63340 -0.57300
C 	C 	0.59890 0.86660 0.13340 -0.81100
C 	C 	0.36660 0.90110 0.36660 -1.02700
C 	C 	0.86660 0.40110 0.86660 -0.90300
N 	N 	0.41090 0.96810 0.68160 -0.22100
N 	N 	0.91090 0.46810 0.18160 -0.30500
N 	N 	0.96810 0.68160 0.41090 -0.22100
N 	N 	0.46810 0.18160 0.91090 -0.30500
N 	N 	0.68160 0.41090 0.96810 -0.22100
N 	N 	0.18160 0.91090 0.46810 -0.30500
N 	N 	0.96810 0.58910 0.31840 -0.22100
N 	N 	0.46810 0.08910 0.81840 -0.33800
N 	N 	0.68160 0.03190 0.58910 -0.41900
N 	N 	0.18160 0.53190 0.08910 -0.33200
N 	N 	0.41090 0.31840 0.03190 -0.42000
N 	N 	0.91090 0.81840 0.53190 -0.30800
N 	N 	0.58910 0.03190 0.68160 -0.41900
N 	N 	0.08910 0.53190 0.18160 -0.33200
N 	N 	0.31840 0.41090 0.03190 -0.42000
N 	N 	0.81840 0.91090 0.53190 -0.30800
N 	N 	0.58910 0.96810 0.31840 -0.22100
N 	N 	0.08910 0.46810 0.81840 -0.33800
N 	N 	0.03190 0.31840 0.41090 -0.42000
N 	N 	0.53190 0.81840 0.91090 -0.30800
N 	N 	0.31840 0.58910 0.96810 -0.22100
N 	N 	0.81840 0.08910 0.46810 -0.33800
N 	N 	0.03190 0.41090 0.31840 -0.42000
N 	N 	0.53190 0.91090 0.81840 -0.30800
N 	N 	0.31840 0.96810 0.58910 -0.22100
N 	N 	0.81840 0.46810 0.08910 -0.33800
N 	N 	0.58910 0.68160 0.03190 -0.41900
N 	N 	0.08910 0.18160 0.53190 -0.33200
N 	N 	0.03190 0.68160 0.58910 -0.41900
N 	N 	0.53190 0.18160 0.08910 -0.33200
N 	N 	0.68160 0.96810 0.41090 -0.22100
N 	N 	0.18160 0.46810 0.91090 -0.30500
N 	N 	0.41090 0.68160 0.96810 -0.22100
N 	N 	0.91090 0.18160 0.46810 -0.30500
N 	N 	0.96810 0.41090 0.68160 -0.22100
N 	N 	0.46810 0.91090 0.18160 -0.30500
N 	N 	0.96810 0.31840 0.58910 -0.22100
N 	N 	0.46810 0.81840 0.08910 -0.33800
N 	N 	0.03190 0.58910 0.68160 -0.41900
N 	N 	0.53190 0.08910 0.18160 -0.33200
N 	N 	0.31840 0.03190 0.41090 -0.42000
N 	N 	0.81840 0.53190 0.91090 -0.30800
N 	N 	0.58910 0.31840 0.96810 -0.22100
N 	N 	0.08910 0.81840 0.46810 -0.33800
N 	N 	0.41090 0.03190 0.31840 -0.42000
N 	N 	0.91090 0.53190 0.81840 -0.30800
N 	N 	0.68160 0.58910 0.03190 -0.41900
N 	N 	0.18160 0.08910 0.53190 -0.33200
