data_crystal

_cell_length_a 13.92100
_cell_length_b 16.51040
_cell_length_c 18.99400
_cell_angle_alpha 113.25400
_cell_angle_beta  90.00000
_cell_angle_gamma 114.93400

_symmetry_space_group_name_	'P 1'
_symmetry_space_group_name_H-M	'P 1'

loop_
_symmetry_equiv_pos_as_xyz
  x,y,z

loop_
_atom_site_label
_atom_site_type_symbol
_atom_site_fract_x
_atom_site_fract_y
_atom_site_fract_z
_atom_site_charge
Zn	Zn	0.08095 0.46952 0.89768 1.22800
Zn	Zn	0.55865 0.43474 0.16064 1.20800
Zn	Zn	0.61143 0.53048 0.60232 1.22900
Zn	Zn	0.12391 0.56526 0.33936 1.20900
Zn	Zn	0.91905 0.53048 0.10232 1.22900
Zn	Zn	0.44135 0.56526 0.83936 1.20900
Zn	Zn	0.38857 0.46952 0.39768 1.22900
Zn	Zn	0.87609 0.43474 0.66064 1.20900
H 	H 	0.48610 0.76100 0.71650 0.01600
H 	H 	0.36310 0.82480 0.73640 0.07100
H 	H 	0.18230 0.72040 0.71310 0.03300
H 	H 	0.15510 0.26260 0.69600 0.01600
H 	H 	0.16340 0.17520 0.56720 0.07800
H 	H 	0.22060 0.25640 0.48900 0.02700
H 	H 	0.21050 0.65040 0.04390 -0.01500
H 	H 	0.29410 0.82140 0.08890 0.11500
H 	H 	0.19310 0.78520 0.87950 0.11900
H 	H 	0.09820 0.61680 0.84260 -0.01500
H 	H 	0.33870 0.27880 0.15700 0.00200
H 	H 	0.24690 0.11260 0.12150 0.11100
H 	H 	0.50280 0.08260 0.05510 0.10700
H 	H 	0.59760 0.25480 0.09400 -0.01600
H 	H 	0.72510 0.23900 0.78350 0.01600
H 	H 	0.53830 0.17520 0.76360 0.07100
H 	H 	0.46190 0.27960 0.78690 0.03300
H 	H 	0.89250 0.73740 0.80400 0.01600
H 	H 	0.98820 0.82480 0.93280 0.07800
H 	H 	0.96420 0.74360 0.01100 0.02700
H 	H 	0.56010 0.34960 0.45610 -0.01600
H 	H 	0.47270 0.17860 0.41110 0.11600
H 	H 	0.40790 0.21480 0.62050 0.12000
H 	H 	0.48140 0.38320 0.65740 -0.01600
H 	H 	0.05990 0.72120 0.34300 0.00200
H 	H 	0.13430 0.88740 0.37850 0.11100
H 	H 	0.42020 0.91740 0.44490 0.10800
H 	H 	0.34280 0.74520 0.40600 -0.01600
H 	H 	0.51390 0.23900 0.28350 0.01600
H 	H 	0.63690 0.17520 0.26360 0.07100
H 	H 	0.81770 0.27960 0.28690 0.03300
H 	H 	0.84490 0.73740 0.30400 0.01600
H 	H 	0.83660 0.82480 0.43280 0.07800
H 	H 	0.77940 0.74360 0.51100 0.02700
H 	H 	0.78950 0.34960 0.95610 -0.01500
H 	H 	0.70590 0.17860 0.91110 0.11500
H 	H 	0.80690 0.21480 0.12050 0.11900
H 	H 	0.90180 0.38320 0.15740 -0.01500
H 	H 	0.66130 0.72120 0.84300 0.00200
H 	H 	0.75310 0.88740 0.87850 0.11100
H 	H 	0.49720 0.91740 0.94490 0.10700
H 	H 	0.40240 0.74520 0.90600 -0.01600
H 	H 	0.27490 0.76100 0.21650 0.01600
H 	H 	0.46170 0.82480 0.23640 0.07100
H 	H 	0.53810 0.72040 0.21310 0.03300
H 	H 	0.10750 0.26260 0.19600 0.01600
H 	H 	0.01180 0.17520 0.06720 0.07800
H 	H 	0.03580 0.25640 0.98900 0.02700
H 	H 	0.43990 0.65040 0.54390 -0.01600
H 	H 	0.52730 0.82140 0.58890 0.11600
H 	H 	0.59210 0.78520 0.37950 0.12000
H 	H 	0.51860 0.61680 0.34260 -0.01600
H 	H 	0.94010 0.27880 0.65700 0.00200
H 	H 	0.86570 0.11260 0.62150 0.11100
H 	H 	0.57980 0.08260 0.55510 0.10800
H 	H 	0.65720 0.25480 0.59400 -0.01600
C 	C 	0.45550 0.57780 0.68100 0.37100
C 	C 	0.38000 0.62060 0.69100 -0.15600
C 	C 	0.41320 0.71920 0.71020 0.06500
C 	C 	0.33920 0.75720 0.72040 -0.12000
C 	C 	0.23160 0.69500 0.70670 0.03700
C 	C 	0.19430 0.59380 0.68340 -0.09400
C 	C 	0.26680 0.55480 0.67550 0.06500
C 	C 	0.07310 0.52920 0.66740 0.30700
C 	C 	0.20320 0.44820 0.77710 0.39400
C 	C 	0.20710 0.39460 0.69460 -0.15700
C 	C 	0.17800 0.29540 0.66440 0.07600
C 	C 	0.18200 0.24220 0.58670 -0.12600
C 	C 	0.21400 0.29040 0.53960 0.05500
C 	C 	0.23650 0.38980 0.56690 -0.11200
C 	C 	0.23470 0.44380 0.64580 0.08400
C 	C 	0.26830 0.43560 0.51040 0.34700
C 	C 	0.20470 0.67740 0.01040 0.12700
C 	C 	0.25560 0.78040 0.03770 -0.21600
C 	C 	0.24860 0.82020 0.98890 0.19200
C 	C 	0.19480 0.75980 0.91500 -0.22700
C 	C 	0.14120 0.65820 0.89240 0.13500
C 	C 	0.37350 0.23980 0.13660 0.11100
C 	C 	0.31760 0.13980 0.11430 -0.20700
C 	C 	0.36440 0.08040 0.08200 0.17600
C 	C 	0.46840 0.12200 0.07540 -0.19800
C 	C 	0.52600 0.22640 0.09940 0.09600
C 	C 	0.87770 0.42220 0.81900 0.37100
C 	C 	0.75940 0.37940 0.80900 -0.15600
C 	C 	0.69400 0.28080 0.78980 0.06500
C 	C 	0.58200 0.24280 0.77960 -0.12000
C 	C 	0.53660 0.30500 0.79330 0.03700
C 	C 	0.60050 0.40620 0.81660 -0.09400
C 	C 	0.71200 0.44520 0.82450 0.06500
C 	C 	0.54390 0.47080 0.83260 0.30700
C 	C 	0.75500 0.55180 0.72290 0.39400
C 	C 	0.81250 0.60540 0.80540 -0.15700
C 	C 	0.88260 0.70460 0.83560 0.07700
C 	C 	0.93980 0.75780 0.91330 -0.12700
C 	C 	0.92360 0.70960 0.96040 0.05500
C 	C 	0.84670 0.61020 0.93310 -0.11300
C 	C 	0.79090 0.55620 0.85420 0.08500
C 	C 	0.83270 0.56440 0.98960 0.34800
C 	C 	0.52730 0.32260 0.48960 0.12700
C 	C 	0.47520 0.21960 0.46230 -0.22100
C 	C 	0.42840 0.17980 0.51110 0.19700
C 	C 	0.43500 0.24020 0.58500 -0.23000
C 	C 	0.48300 0.34180 0.60760 0.13700
C 	C 	0.13370 0.76020 0.36340 0.11200
C 	C 	0.17780 0.86020 0.38570 -0.20800
C 	C 	0.28400 0.91960 0.41800 0.17900
C 	C 	0.34640 0.87800 0.42460 -0.19900
C 	C 	0.29960 0.77360 0.40060 0.09700
C 	C 	0.54450 0.42220 0.31900 0.37100
C 	C 	0.62000 0.37940 0.30900 -0.15600
C 	C 	0.58680 0.28080 0.28980 0.06500
C 	C 	0.66080 0.24280 0.27960 -0.12000
C 	C 	0.76840 0.30500 0.29330 0.03700
C 	C 	0.80570 0.40620 0.31660 -0.09400
C 	C 	0.73320 0.44520 0.32450 0.06500
C 	C 	0.92690 0.47080 0.33260 0.30700
C 	C 	0.79680 0.55180 0.22290 0.39400
C 	C 	0.79290 0.60540 0.30540 -0.15700
C 	C 	0.82200 0.70460 0.33560 0.07600
C 	C 	0.81800 0.75780 0.41330 -0.12600
C 	C 	0.78600 0.70960 0.46040 0.05500
C 	C 	0.76350 0.61020 0.43310 -0.11200
C 	C 	0.76530 0.55620 0.35420 0.08400
C 	C 	0.73170 0.56440 0.48960 0.34700
C 	C 	0.79530 0.32260 0.98960 0.12700
C 	C 	0.74440 0.21960 0.96230 -0.21600
C 	C 	0.75140 0.17980 0.01110 0.19200
C 	C 	0.80520 0.24020 0.08500 -0.22700
C 	C 	0.85880 0.34180 0.10760 0.13500
C 	C 	0.62650 0.76020 0.86340 0.11100
C 	C 	0.68240 0.86020 0.88570 -0.20700
C 	C 	0.63560 0.91960 0.91800 0.17600
C 	C 	0.53160 0.87800 0.92460 -0.19800
C 	C 	0.47400 0.77360 0.90060 0.09600
C 	C 	0.12230 0.57780 0.18100 0.37100
C 	C 	0.24060 0.62060 0.19100 -0.15600
C 	C 	0.30600 0.71920 0.21020 0.06500
C 	C 	0.41800 0.75720 0.22040 -0.12000
C 	C 	0.46340 0.69500 0.20670 0.03700
C 	C 	0.39950 0.59380 0.18340 -0.09400
C 	C 	0.28800 0.55480 0.17550 0.06500
C 	C 	0.45610 0.52920 0.16740 0.30700
C 	C 	0.24500 0.44820 0.27710 0.39400
C 	C 	0.18750 0.39460 0.19460 -0.15700
C 	C 	0.11740 0.29540 0.16440 0.07700
C 	C 	0.06020 0.24220 0.08670 -0.12700
C 	C 	0.07640 0.29040 0.03960 0.05500
C 	C 	0.15330 0.38980 0.06690 -0.11300
C 	C 	0.20910 0.44380 0.14580 0.08500
C 	C 	0.16730 0.43560 0.01040 0.34800
C 	C 	0.47270 0.67740 0.51040 0.12700
C 	C 	0.52480 0.78040 0.53770 -0.22100
C 	C 	0.57160 0.82020 0.48890 0.19700
C 	C 	0.56500 0.75980 0.41500 -0.23000
C 	C 	0.51700 0.65820 0.39240 0.13700
C 	C 	0.86630 0.23980 0.63660 0.11200
C 	C 	0.82220 0.13980 0.61430 -0.20800
C 	C 	0.71600 0.08040 0.58200 0.17900
C 	C 	0.65360 0.12200 0.57540 -0.19900
C 	C 	0.70040 0.22640 0.59940 0.09700
N 	N 	0.14862 0.61752 0.93858 -0.28800
N 	N 	0.30458 0.92446 0.00911 -0.09900
N 	N 	0.30040 0.97506 0.06067 -0.09200
N 	N 	0.47772 0.28414 0.12989 -0.26700
N 	N 	0.53110 0.38248 0.56142 -0.28800
N 	N 	0.38012 0.07554 0.49089 -0.10100
N 	N 	0.32534 0.02494 0.43933 -0.09300
N 	N 	0.19358 0.71586 0.37011 -0.26800
N 	N 	0.85138 0.38248 0.06142 -0.28800
N 	N 	0.69542 0.07554 0.99089 -0.09900
N 	N 	0.69960 0.02494 0.93933 -0.09200
N 	N 	0.52228 0.71586 0.87011 -0.26700
N 	N 	0.46890 0.61752 0.43858 -0.28800
N 	N 	0.61988 0.92446 0.50911 -0.10100
N 	N 	0.67466 0.97506 0.56067 -0.09300
N 	N 	0.80642 0.28414 0.62989 -0.26800
O 	O 	0.51433 0.59040 0.63003 -0.44500
O 	O 	0.46616 0.53644 0.72137 -0.43700
O 	O 	0.28221 0.52974 0.82271 -0.49200
O 	O 	0.11842 0.40438 0.79958 -0.45800
O 	O 	0.01114 0.57060 0.68150 -0.39500
O 	O 	0.03420 0.43762 0.64185 -0.37500
O 	O 	0.22329 0.48596 0.50524 -0.30000
O 	O 	0.33453 0.41556 0.47097 -0.46400
O 	O 	0.92393 0.40960 0.86997 -0.44400
O 	O 	0.92972 0.46356 0.77863 -0.43700
O 	O 	0.75247 0.47026 0.67729 -0.49200
O 	O 	0.71404 0.59562 0.70042 -0.45800
O 	O 	0.44054 0.42940 0.81850 -0.39500
O 	O 	0.59658 0.56238 0.85815 -0.37400
O 	O 	0.73733 0.51404 0.99476 -0.30000
O 	O 	0.91897 0.58444 0.02903 -0.46500
O 	O 	0.48567 0.40960 0.36997 -0.44500
O 	O 	0.53384 0.46356 0.27863 -0.43700
O 	O 	0.71779 0.47026 0.17729 -0.49200
O 	O 	0.88158 0.59562 0.20042 -0.45800
O 	O 	0.98886 0.42940 0.31850 -0.39500
O 	O 	0.96580 0.56238 0.35815 -0.37500
O 	O 	0.77671 0.51404 0.49476 -0.30000
O 	O 	0.66547 0.58444 0.52903 -0.46400
O 	O 	0.07607 0.59040 0.13003 -0.44400
O 	O 	0.07028 0.53644 0.22137 -0.43700
O 	O 	0.24753 0.52974 0.32271 -0.49200
O 	O 	0.28596 0.40438 0.29958 -0.45800
O 	O 	0.55946 0.57060 0.18150 -0.39500
O 	O 	0.40342 0.43762 0.14185 -0.37400
O 	O 	0.26267 0.48596 0.00524 -0.30000
O 	O 	0.08103 0.41556 0.97097 -0.46500
