data_crystal

_cell_length_a 11.29490
_cell_length_b 21.31200
_cell_length_c 29.09700
_cell_angle_alpha 90.00000
_cell_angle_beta  90.00000
_cell_angle_gamma 90.00000

_symmetry_space_group_name_	'P 1'
_symmetry_space_group_name_H-M	'P 1'

loop_
_symmetry_equiv_pos_as_xyz
  x,y,z

loop_
_atom_site_label
_atom_site_type_symbol
_atom_site_fract_x
_atom_site_fract_y
_atom_site_fract_z
_atom_site_charge
Zn	Zn	0.61624 0.83550 0.67438 1.21000
Zn	Zn	0.75818 0.90075 0.75938 1.20800
Zn	Zn	0.48527 0.89514 0.76089 1.18500
Zn	Zn	0.65403 0.98415 0.68561 1.17000
Zn	Zn	0.38376 0.16450 0.17438 1.20900
Zn	Zn	0.24182 0.09925 0.25938 1.20700
Zn	Zn	0.51473 0.10486 0.26089 1.18400
Zn	Zn	0.34597 0.01585 0.18561 1.16900
Zn	Zn	0.88376 0.33550 0.67438 1.20900
Zn	Zn	0.74182 0.40075 0.75938 1.20700
Zn	Zn	0.01473 0.39514 0.76089 1.18400
Zn	Zn	0.84597 0.48415 0.68561 1.16900
Zn	Zn	0.11624 0.66450 0.17438 1.20900
Zn	Zn	0.25818 0.59925 0.25938 1.20700
Zn	Zn	0.98527 0.60486 0.26089 1.18400
Zn	Zn	0.15403 0.51585 0.18561 1.16900
H 	H 	0.87940 0.99750 0.55980 0.02100
H 	H 	0.97470 0.97770 0.48940 0.08000
H 	H 	0.81660 0.81170 0.48280 0.08200
H 	H 	0.70460 0.83380 0.54930 0.00600
H 	H 	0.08950 0.95370 0.34260 0.05300
H 	H 	0.17180 0.84600 0.23170 0.03800
H 	H 	0.97950 0.77770 0.34090 0.05300
H 	H 	0.29680 0.68810 0.39100 -0.00400
H 	H 	0.29130 0.72270 0.46420 0.11200
H 	H 	0.94930 0.68800 0.46910 0.09500
H 	H 	0.95670 0.65250 0.39370 -0.00500
H 	H 	0.29270 0.80300 0.60590 0.03900
H 	H 	0.11890 0.86510 0.71590 0.03500
H 	H 	0.94010 0.80020 0.60760 0.03700
H 	H 	0.12060 0.00250 0.05980 0.02500
H 	H 	0.02530 0.02230 0.98940 0.06900
H 	H 	0.18340 0.18830 0.98280 0.08100
H 	H 	0.29540 0.16620 0.04930 0.00700
H 	H 	0.91050 0.04630 0.84260 0.05300
H 	H 	0.82820 0.15400 0.73170 0.03800
H 	H 	0.02050 0.22230 0.84090 0.05300
H 	H 	0.70320 0.31190 0.89100 -0.00100
H 	H 	0.70870 0.27730 0.96420 0.10600
H 	H 	0.05070 0.31200 0.96910 0.09000
H 	H 	0.04330 0.34750 0.89370 -0.00200
H 	H 	0.70730 0.19700 0.10590 0.04100
H 	H 	0.88110 0.13490 0.21590 0.03500
H 	H 	0.05990 0.19980 0.10760 0.03900
H 	H 	0.62060 0.49750 0.55980 0.02100
H 	H 	0.52530 0.47770 0.48940 0.08000
H 	H 	0.68340 0.31170 0.48280 0.08200
H 	H 	0.79540 0.33380 0.54930 0.00600
H 	H 	0.41050 0.45370 0.34260 0.05300
H 	H 	0.32820 0.34600 0.23170 0.03800
H 	H 	0.52050 0.27770 0.34090 0.05400
H 	H 	0.20320 0.18810 0.39100 -0.00400
H 	H 	0.20870 0.22270 0.46420 0.11200
H 	H 	0.55070 0.18800 0.46910 0.09600
H 	H 	0.54330 0.15250 0.39370 -0.00400
H 	H 	0.20730 0.30300 0.60590 0.03900
H 	H 	0.38110 0.36510 0.71590 0.03500
H 	H 	0.55990 0.30020 0.60760 0.03800
H 	H 	0.37940 0.50250 0.05980 0.02500
H 	H 	0.47470 0.52230 0.98940 0.06800
H 	H 	0.31660 0.68830 0.98280 0.08100
H 	H 	0.20460 0.66620 0.04930 0.00600
H 	H 	0.58950 0.54630 0.84260 0.05300
H 	H 	0.67180 0.65400 0.73170 0.03800
H 	H 	0.47950 0.72230 0.84090 0.05400
H 	H 	0.79680 0.81190 0.89100 -0.00100
H 	H 	0.79130 0.77730 0.96420 0.10600
H 	H 	0.44930 0.81200 0.96910 0.09100
H 	H 	0.45670 0.84750 0.89370 -0.00100
H 	H 	0.79270 0.69700 0.10590 0.04100
H 	H 	0.61890 0.63490 0.21590 0.03500
H 	H 	0.44010 0.69980 0.10760 0.03900
C 	C 	0.71770 0.92930 0.60530 0.39100
C 	C 	0.78170 0.91500 0.56060 -0.14000
C 	C 	0.86460 0.96070 0.54360 0.05500
C 	C 	0.92300 0.94800 0.50150 -0.13800
C 	C 	0.90430 0.89110 0.47750 0.10000
C 	C 	0.82730 0.85030 0.49710 -0.14900
C 	C 	0.76050 0.86230 0.53860 0.07300
C 	C 	0.95020 0.88480 0.43180 -0.05900
C 	C 	0.98910 0.87510 0.39650 0.00800
C 	C 	0.04490 0.86600 0.35060 -0.00000
C 	C 	0.09110 0.91450 0.32860 -0.02100
C 	C 	0.14280 0.90880 0.28450 -0.10200
C 	C 	0.13640 0.85120 0.26030 0.02700
C 	C 	0.07330 0.80170 0.28200 -0.09300
C 	C 	0.02400 0.80940 0.32740 -0.02000
C 	C 	0.19530 0.96590 0.26210 0.38400
C 	C 	0.06560 0.74031 0.25820 0.36700
C 	C 	0.13760 0.63260 0.34070 0.37300
C 	C 	0.13280 0.65890 0.38690 -0.19000
C 	C 	0.22560 0.68640 0.40700 0.14900
C 	C 	0.22090 0.71200 0.44960 -0.23300
C 	C 	0.12110 0.72210 0.47080 0.15900
C 	C 	0.01890 0.69090 0.45210 -0.19200
C 	C 	0.02550 0.66540 0.40850 0.11900
C 	C 	0.11220 0.75110 0.51480 -0.08800
C 	C 	0.11350 0.76890 0.55370 0.02600
C 	C 	0.11800 0.79570 0.59990 -0.03100
C 	C 	0.22160 0.81010 0.62110 0.00400
C 	C 	0.22340 0.83460 0.66410 -0.11500
C 	C 	0.11660 0.84730 0.68680 0.05800
C 	C 	0.00760 0.83410 0.66710 -0.14300
C 	C 	0.01110 0.80870 0.62260 0.01500
C 	C 	0.34220 0.85210 0.68660 0.38400
C 	C 	0.90160 0.84350 0.68950 0.37400
C 	C 	0.28230 0.07070 0.10530 0.39100
C 	C 	0.21830 0.08500 0.06060 -0.13700
C 	C 	0.13540 0.03930 0.04360 0.04600
C 	C 	0.07700 0.05200 0.00150 -0.11600
C 	C 	0.09570 0.10890 0.97750 0.08800
C 	C 	0.17270 0.14970 0.99710 -0.15000
C 	C 	0.23950 0.13770 0.03860 0.07600
C 	C 	0.04980 0.11520 0.93180 -0.05500
C 	C 	0.01090 0.12490 0.89650 0.00500
C 	C 	0.95510 0.13400 0.85060 0.00100
C 	C 	0.90890 0.08550 0.82860 -0.02200
C 	C 	0.85720 0.09120 0.78450 -0.10200
C 	C 	0.86360 0.14880 0.76030 0.02600
C 	C 	0.92670 0.19830 0.78200 -0.09300
C 	C 	0.97600 0.19060 0.82740 -0.02100
C 	C 	0.80470 0.03410 0.76210 0.38400
C 	C 	0.93440 0.25969 0.75820 0.36700
C 	C 	0.86240 0.36740 0.84070 0.37000
C 	C 	0.86720 0.34110 0.88690 -0.18300
C 	C 	0.77440 0.31360 0.90700 0.13800
C 	C 	0.77910 0.28800 0.94960 -0.22100
C 	C 	0.87890 0.27790 0.97080 0.14400
C 	C 	0.98110 0.30910 0.95210 -0.18300
C 	C 	0.97450 0.33460 0.90850 0.11000
C 	C 	0.88780 0.24890 0.01480 -0.07500
C 	C 	0.88650 0.23110 0.05370 0.02000
C 	C 	0.88200 0.20430 0.09990 -0.02600
C 	C 	0.77840 0.18990 0.12110 0.00100
C 	C 	0.77660 0.16540 0.16410 -0.11400
C 	C 	0.88340 0.15270 0.18680 0.05700
C 	C 	0.99240 0.16590 0.16710 -0.14100
C 	C 	0.98890 0.19130 0.12260 0.01200
C 	C 	0.65780 0.14790 0.18660 0.38300
C 	C 	0.09840 0.15650 0.18950 0.37400
C 	C 	0.78230 0.42930 0.60530 0.39200
C 	C 	0.71830 0.41500 0.56060 -0.14100
C 	C 	0.63540 0.46070 0.54360 0.05500
C 	C 	0.57700 0.44800 0.50150 -0.13800
C 	C 	0.59570 0.39110 0.47750 0.10100
C 	C 	0.67270 0.35030 0.49710 -0.14900
C 	C 	0.73950 0.36230 0.53860 0.07400
C 	C 	0.54980 0.38480 0.43180 -0.05900
C 	C 	0.51090 0.37510 0.39650 0.00900
C 	C 	0.45510 0.36600 0.35060 -0.00100
C 	C 	0.40890 0.41450 0.32860 -0.02000
C 	C 	0.35720 0.40880 0.28450 -0.10200
C 	C 	0.36360 0.35120 0.26030 0.02600
C 	C 	0.42670 0.30170 0.28200 -0.09300
C 	C 	0.47600 0.30940 0.32740 -0.02100
C 	C 	0.30470 0.46590 0.26210 0.38400
C 	C 	0.43440 0.24031 0.25820 0.36700
C 	C 	0.36240 0.13260 0.34070 0.37300
C 	C 	0.36720 0.15890 0.38690 -0.18900
C 	C 	0.27440 0.18640 0.40700 0.14900
C 	C 	0.27910 0.21200 0.44960 -0.23400
C 	C 	0.37890 0.22210 0.47080 0.16000
C 	C 	0.48110 0.19090 0.45210 -0.19400
C 	C 	0.47450 0.16540 0.40850 0.11800
C 	C 	0.38780 0.25110 0.51480 -0.08800
C 	C 	0.38650 0.26890 0.55370 0.02600
C 	C 	0.38200 0.29570 0.59990 -0.03100
C 	C 	0.27840 0.31010 0.62110 0.00300
C 	C 	0.27660 0.33460 0.66410 -0.11500
C 	C 	0.38340 0.34730 0.68680 0.05800
C 	C 	0.49240 0.33410 0.66710 -0.14300
C 	C 	0.48890 0.30870 0.62260 0.01400
C 	C 	0.15780 0.35210 0.68660 0.38400
C 	C 	0.59840 0.34350 0.68950 0.37400
C 	C 	0.21770 0.57070 0.10530 0.39100
C 	C 	0.28170 0.58500 0.06060 -0.13700
C 	C 	0.36460 0.53930 0.04360 0.04500
C 	C 	0.42300 0.55200 0.00150 -0.11500
C 	C 	0.40430 0.60890 0.97750 0.08800
C 	C 	0.32730 0.64970 0.99710 -0.15000
C 	C 	0.26050 0.63770 0.03860 0.07600
C 	C 	0.45020 0.61520 0.93180 -0.05500
C 	C 	0.48910 0.62490 0.89650 0.00500
C 	C 	0.54490 0.63400 0.85060 0.00100
C 	C 	0.59110 0.58550 0.82860 -0.02200
C 	C 	0.64280 0.59120 0.78450 -0.10200
C 	C 	0.63640 0.64880 0.76030 0.02600
C 	C 	0.57330 0.69830 0.78200 -0.09300
C 	C 	0.52400 0.69060 0.82740 -0.02200
C 	C 	0.69530 0.53410 0.76210 0.38400
C 	C 	0.56560 0.75969 0.75820 0.36700
C 	C 	0.63760 0.86740 0.84070 0.37000
C 	C 	0.63280 0.84110 0.88690 -0.18200
C 	C 	0.72560 0.81360 0.90700 0.13800
C 	C 	0.72090 0.78800 0.94960 -0.22000
C 	C 	0.62110 0.77790 0.97080 0.14400
C 	C 	0.51890 0.80910 0.95210 -0.18400
C 	C 	0.52550 0.83460 0.90850 0.10900
C 	C 	0.61220 0.74890 0.01480 -0.07500
C 	C 	0.61350 0.73110 0.05370 0.02000
C 	C 	0.61800 0.70430 0.09990 -0.02600
C 	C 	0.72160 0.68990 0.12110 0.00000
C 	C 	0.72340 0.66540 0.16410 -0.11300
C 	C 	0.61660 0.65270 0.18680 0.05600
C 	C 	0.50760 0.66590 0.16710 -0.14100
C 	C 	0.51110 0.69130 0.12260 0.01100
C 	C 	0.84220 0.64790 0.18660 0.38300
C 	C 	0.40160 0.65650 0.18950 0.37400
O 	O 	0.62210 0.90853 0.71936 -0.94000
O 	O 	0.63320 0.89640 0.61450 -0.49400
O 	O 	0.75240 0.97460 0.63060 -0.49800
O 	O 	0.18980 0.01632 0.28144 -0.50700
O 	O 	0.24660 0.95673 0.22233 -0.51000
O 	O 	0.12510 0.73260 0.22230 -0.49300
O 	O 	0.99630 0.69975 0.27661 -0.45200
O 	O 	0.23570 0.64349 0.31844 -0.46300
O 	O 	0.05350 0.59676 0.32744 -0.48500
O 	O 	0.43630 0.83679 0.66518 -0.48800
O 	O 	0.33790 0.87938 0.72451 -0.50300
O 	O 	0.80500 0.83210 0.66820 -0.46200
O 	O 	0.90330 0.86993 0.73002 -0.46700
O 	O 	0.37790 0.09147 0.21936 -0.94000
O 	O 	0.36680 0.10360 0.11450 -0.49400
O 	O 	0.24760 0.02540 0.13060 -0.49800
O 	O 	0.81020 0.98368 0.78144 -0.50700
O 	O 	0.75340 0.04327 0.72233 -0.51000
O 	O 	0.87490 0.26740 0.72230 -0.49300
O 	O 	0.00370 0.30025 0.77661 -0.45200
O 	O 	0.76430 0.35651 0.81844 -0.46200
O 	O 	0.94650 0.40324 0.82744 -0.48500
O 	O 	0.56370 0.16321 0.16518 -0.48800
O 	O 	0.66210 0.12062 0.22451 -0.50300
O 	O 	0.19500 0.16790 0.16820 -0.46100
O 	O 	0.09670 0.13007 0.23002 -0.46700
O 	O 	0.87790 0.40853 0.71936 -0.94000
O 	O 	0.86680 0.39640 0.61450 -0.49500
O 	O 	0.74760 0.47460 0.63060 -0.49800
O 	O 	0.31020 0.51632 0.28144 -0.50700
O 	O 	0.25340 0.45673 0.22233 -0.51000
O 	O 	0.37490 0.23260 0.22230 -0.49300
O 	O 	0.50370 0.19975 0.27661 -0.45100
O 	O 	0.26430 0.14349 0.31844 -0.46300
O 	O 	0.44650 0.09676 0.32744 -0.48500
O 	O 	0.06370 0.33679 0.66518 -0.48800
O 	O 	0.16210 0.37938 0.72451 -0.50300
O 	O 	0.69500 0.33210 0.66820 -0.46200
O 	O 	0.59670 0.36993 0.73002 -0.46700
O 	O 	0.12210 0.59147 0.21936 -0.94000
O 	O 	0.13320 0.60360 0.11450 -0.49400
O 	O 	0.25240 0.52540 0.13060 -0.49800
O 	O 	0.68980 0.48368 0.78144 -0.50700
O 	O 	0.74660 0.54327 0.72233 -0.51000
O 	O 	0.62510 0.76740 0.72230 -0.49300
O 	O 	0.49630 0.80025 0.77661 -0.45100
O 	O 	0.73570 0.85651 0.81844 -0.46200
O 	O 	0.55350 0.90324 0.82744 -0.48500
O 	O 	0.93630 0.66321 0.16518 -0.48800
O 	O 	0.83790 0.62062 0.22451 -0.50300
O 	O 	0.30500 0.66790 0.16820 -0.46100
O 	O 	0.40330 0.63007 0.23002 -0.46700
