data_crystal

_cell_length_a 7.40870
_cell_length_b 14.53470
_cell_length_c 16.42360
_cell_angle_alpha 90.00000
_cell_angle_beta  90.00000
_cell_angle_gamma 94.99300

_symmetry_space_group_name_	'P 1'
_symmetry_space_group_name_H-M	'P 1'

loop_
_symmetry_equiv_pos_as_xyz
  x,y,z

loop_
_atom_site_label
_atom_site_type_symbol
_atom_site_fract_x
_atom_site_fract_y
_atom_site_fract_z
_atom_site_charge
Zn	Zn	0.22160 0.68087 0.48192 1.21300
Zn	Zn	0.19130 0.47910 0.37277 1.22200
Zn	Zn	0.27840 0.81913 0.98192 1.23100
Zn	Zn	0.30870 0.02090 0.87277 1.20100
Zn	Zn	0.77840 0.31913 0.51808 1.21300
Zn	Zn	0.80870 0.52090 0.62723 1.23100
Zn	Zn	0.72160 0.18087 0.01808 1.19800
Zn	Zn	0.69130 0.97910 0.12723 1.25100
Zn	Zn	0.50000 0.50000 0.50000 1.23400
Zn	Zn	-0.00000 0.00000 -0.00000 1.18500
H 	H 	0.83620 0.48200 0.47600 0.19200
H 	H 	0.42880 0.67420 0.20540 0.04900
H 	H 	0.04860 0.72920 0.22440 -0.01100
H 	H 	0.66380 0.01800 0.97600 0.21300
H 	H 	0.07120 0.82580 0.70540 0.01500
H 	H 	0.45140 0.77080 0.72440 0.03500
H 	H 	0.16380 0.51800 0.52400 0.18100
H 	H 	0.57120 0.32580 0.79460 0.04200
H 	H 	0.95140 0.27080 0.77560 0.07300
H 	H 	0.33620 0.98200 0.02400 0.15500
H 	H 	0.92880 0.17420 0.29460 0.09300
H 	H 	0.54860 0.22920 0.27560 0.01700
C 	C 	0.83070 0.66440 0.28030 -0.10400
C 	C 	0.64310 0.64760 0.27470 -0.04700
C 	C 	0.55350 0.68720 0.21050 -0.01000
C 	C 	0.64390 0.74480 0.15450 -0.06300
C 	C 	0.83270 0.75990 0.15970 -0.14100
C 	C 	0.92300 0.71950 0.22160 0.10500
C 	C 	0.94590 0.62590 0.34570 0.44600
C 	C 	0.53440 0.59200 0.33630 0.36400
C 	C 	0.52810 0.78630 0.09210 0.36200
C 	C 	0.94560 0.81900 0.09930 0.47600
C 	C 	0.66930 0.83560 0.78030 -0.04800
C 	C 	0.85690 0.85240 0.77470 -0.08300
C 	C 	0.94650 0.81280 0.71050 0.07100
C 	C 	0.85610 0.75520 0.65450 -0.10500
C 	C 	0.66730 0.74010 0.65970 -0.08900
C 	C 	0.57700 0.78050 0.72160 0.01700
C 	C 	0.55410 0.87410 0.84570 0.39400
C 	C 	0.96560 0.90800 0.83630 0.39600
C 	C 	0.97190 0.71370 0.59210 0.40600
C 	C 	0.55440 0.68100 0.59930 0.43300
C 	C 	0.16930 0.33560 0.71970 -0.03600
C 	C 	0.35690 0.35240 0.72530 -0.08600
C 	C 	0.44650 0.31280 0.78950 0.02300
C 	C 	0.35610 0.25520 0.84550 -0.10100
C 	C 	0.16730 0.24010 0.84030 -0.07000
C 	C 	0.07700 0.28050 0.77840 -0.05700
C 	C 	0.05410 0.37410 0.65430 0.35900
C 	C 	0.46560 0.40800 0.66370 0.37400
C 	C 	0.47190 0.21370 0.90790 0.37700
C 	C 	0.05440 0.18100 0.90070 0.38700
C 	C 	0.33070 0.16440 0.21970 -0.10700
C 	C 	0.14310 0.14760 0.22530 -0.03000
C 	C 	0.05350 0.18720 0.28950 -0.09100
C 	C 	0.14390 0.24480 0.34550 -0.04100
C 	C 	0.33270 0.25990 0.34030 -0.13900
C 	C 	0.42300 0.21950 0.27840 0.05400
C 	C 	0.44590 0.12590 0.15430 0.42200
C 	C 	0.03440 0.09200 0.16370 0.31700
C 	C 	0.02810 0.28630 0.40790 0.31700
C 	C 	0.44560 0.31900 0.40070 0.44600
O 	O 	0.97000 0.54260 0.34100 -0.47200
O 	O 	0.01740 0.68330 0.39470 -0.48900
O 	O 	0.37780 0.56030 0.31380 -0.49300
O 	O 	0.60380 0.58090 0.40410 -0.45500
O 	O 	0.52370 0.87160 0.08700 -0.51000
O 	O 	0.42720 0.73290 0.04960 -0.43600
O 	O 	0.07830 0.78310 0.07050 -0.50500
O 	O 	0.90140 0.89730 0.08430 -0.57100
O 	O 	0.75400 0.45350 0.51740 -0.74800
O 	O 	0.53000 0.95740 0.84100 -0.43300
O 	O 	0.48260 0.81670 0.89470 -0.44100
O 	O 	0.12220 0.93970 0.81380 -0.48100
O 	O 	0.89620 0.91910 0.90410 -0.41500
O 	O 	0.97630 0.62840 0.58700 -0.51200
O 	O 	0.07280 0.76710 0.54960 -0.42800
O 	O 	0.42170 0.71690 0.57050 -0.45500
O 	O 	0.59860 0.60270 0.58430 -0.58000
O 	O 	0.74600 0.04650 0.01740 -0.81600
O 	O 	0.03000 0.45740 0.65900 -0.47100
O 	O 	0.98260 0.31670 0.60530 -0.43700
O 	O 	0.62220 0.43970 0.68620 -0.48500
O 	O 	0.39620 0.41910 0.59590 -0.46400
O 	O 	0.47630 0.12840 0.91300 -0.52100
O 	O 	0.57280 0.26710 0.95040 -0.38900
O 	O 	0.92170 0.21690 0.92950 -0.40800
O 	O 	0.09860 0.10270 0.91570 -0.58200
O 	O 	0.24600 0.54650 0.48260 -0.75200
O 	O 	0.47000 0.04260 0.15900 -0.51100
O 	O 	0.51740 0.18330 0.10530 -0.48800
O 	O 	0.87780 0.06030 0.18620 -0.48000
O 	O 	0.10380 0.08090 0.09590 -0.48400
O 	O 	0.02370 0.37160 0.41300 -0.51600
O 	O 	0.92720 0.23290 0.45040 -0.38900
O 	O 	0.57830 0.28310 0.42950 -0.46800
O 	O 	0.40140 0.39730 0.41570 -0.58700
O 	O 	0.25400 0.95350 0.98260 -0.65900
