data_crystal

_cell_length_a 18.14240
_cell_length_b 18.14240
_cell_length_c 18.14240
_cell_angle_alpha 60.00000
_cell_angle_beta  60.00000
_cell_angle_gamma 60.00000

_symmetry_space_group_name_	'P 1'
_symmetry_space_group_name_H-M	'P 1'

loop_
_symmetry_equiv_pos_as_xyz
  x,y,z

loop_
_atom_site_label
_atom_site_type_symbol
_atom_site_fract_x
_atom_site_fract_y
_atom_site_fract_z
_atom_site_charge
Zn	Zn	0.79369 0.79368 0.61895 1.21300
Zn	Zn	0.79369 0.79368 0.79368 1.21300
Zn	Zn	0.61896 0.79368 0.79368 1.21300
Zn	Zn	0.79369 0.61895 0.79368 1.21300
Zn	Zn	0.20631 0.20632 0.38105 1.21300
Zn	Zn	0.20631 0.20632 0.20632 1.21300
Zn	Zn	0.20631 0.38105 0.20632 1.21300
Zn	Zn	0.38104 0.20632 0.20632 1.21300
H 	H 	0.65590 0.95550 0.43310 0.05200
H 	H 	0.95550 0.65590 0.95550 0.05200
H 	H 	0.43310 0.95550 0.65590 0.05200
H 	H 	0.95550 0.43310 0.95550 0.05200
H 	H 	0.65590 0.43310 0.95550 0.05200
H 	H 	0.95550 0.95550 0.43310 0.05200
H 	H 	0.43310 0.65590 0.95550 0.05200
H 	H 	0.95550 0.95550 0.65590 0.05200
H 	H 	0.65590 0.95550 0.95550 0.05300
H 	H 	0.95550 0.43310 0.65590 0.05300
H 	H 	0.43310 0.95550 0.95550 0.05300
H 	H 	0.95550 0.65590 0.43310 0.05300
H 	H 	0.04450 0.34410 0.56690 0.05300
H 	H 	0.34410 0.04450 0.04450 0.05300
H 	H 	0.04450 0.56690 0.34410 0.05300
H 	H 	0.56690 0.04450 0.04450 0.05300
H 	H 	0.56690 0.34410 0.04450 0.05300
H 	H 	0.04450 0.04450 0.56690 0.05300
H 	H 	0.34410 0.56690 0.04450 0.05300
H 	H 	0.04450 0.04450 0.34410 0.05300
H 	H 	0.04450 0.34410 0.04450 0.05300
H 	H 	0.56690 0.04450 0.34410 0.05300
H 	H 	0.04450 0.56690 0.04450 0.05300
H 	H 	0.34410 0.04450 0.56690 0.05300
C 	C 	0.59211 0.97397 0.45995 -0.02100
C 	C 	0.97397 0.59211 0.97397 -0.02100
C 	C 	0.45995 0.97397 0.59211 -0.02100
C 	C 	0.97397 0.45995 0.97397 -0.02100
C 	C 	0.59211 0.45995 0.97397 -0.02100
C 	C 	0.97397 0.97397 0.45995 -0.02100
C 	C 	0.45995 0.59211 0.97397 -0.02100
C 	C 	0.97397 0.97397 0.59211 -0.02100
C 	C 	0.59211 0.97397 0.97397 -0.02100
C 	C 	0.97397 0.45995 0.59211 -0.02100
C 	C 	0.45995 0.97397 0.97397 -0.02100
C 	C 	0.97397 0.59211 0.45995 -0.02100
C 	C 	0.02603 0.40789 0.54005 -0.02100
C 	C 	0.40789 0.02603 0.02603 -0.02100
C 	C 	0.02603 0.54005 0.40789 -0.02100
C 	C 	0.54005 0.02603 0.02603 -0.02100
C 	C 	0.54005 0.40789 0.02603 -0.02100
C 	C 	0.02603 0.02603 0.54005 -0.02100
C 	C 	0.40789 0.54005 0.02603 -0.02100
C 	C 	0.02603 0.02603 0.40789 -0.02100
C 	C 	0.02603 0.40789 0.02603 -0.02100
C 	C 	0.54005 0.02603 0.40789 -0.02100
C 	C 	0.02603 0.54005 0.02603 -0.02100
C 	C 	0.40789 0.02603 0.54005 -0.02100
C 	C 	0.55320 0.94680 0.55320 -0.06300
C 	C 	0.61160 0.88840 0.61160 0.32400
C 	C 	0.94680 0.55320 0.94680 -0.06300
C 	C 	0.88840 0.61160 0.88840 0.32400
C 	C 	0.55320 0.55320 0.94680 -0.06300
C 	C 	0.61160 0.61160 0.88840 0.32400
C 	C 	0.94680 0.94680 0.55320 -0.06300
C 	C 	0.88840 0.88840 0.61160 0.32400
C 	C 	0.55320 0.94680 0.94680 -0.06300
C 	C 	0.61160 0.88840 0.88840 0.32400
C 	C 	0.94680 0.55320 0.55320 -0.06300
C 	C 	0.88840 0.61160 0.61160 0.32400
C 	C 	0.05320 0.44680 0.44680 -0.06300
C 	C 	0.11160 0.38840 0.38840 0.32400
C 	C 	0.44680 0.05320 0.05320 -0.06300
C 	C 	0.38840 0.11160 0.11160 0.32400
C 	C 	0.44680 0.44680 0.05320 -0.06300
C 	C 	0.38840 0.38840 0.11160 0.32400
C 	C 	0.05320 0.05320 0.44680 -0.06300
C 	C 	0.11160 0.11160 0.38840 0.32400
C 	C 	0.05320 0.44680 0.05320 -0.06300
C 	C 	0.11160 0.38840 0.11160 0.32400
C 	C 	0.44680 0.05320 0.44680 -0.06300
C 	C 	0.38840 0.11160 0.38840 0.32400
O 	O 	0.75000 0.75000 0.75000 -0.96600
O 	O 	0.25000 0.25000 0.25000 -0.96600
O 	O 	0.69809 0.86635 0.56921 -0.48600
O 	O 	0.86635 0.69809 0.86635 -0.48600
O 	O 	0.56921 0.86635 0.69809 -0.48600
O 	O 	0.86635 0.56921 0.86635 -0.48600
O 	O 	0.69809 0.56921 0.86635 -0.48600
O 	O 	0.86635 0.86635 0.56921 -0.48600
O 	O 	0.56921 0.69809 0.86635 -0.48600
O 	O 	0.86635 0.86635 0.69809 -0.48600
O 	O 	0.69809 0.86635 0.86635 -0.48600
O 	O 	0.86635 0.56921 0.69809 -0.48600
O 	O 	0.56921 0.86635 0.86635 -0.48600
O 	O 	0.86635 0.69809 0.56921 -0.48600
O 	O 	0.13365 0.30191 0.43079 -0.48600
O 	O 	0.30191 0.13365 0.13365 -0.48600
O 	O 	0.13365 0.43079 0.30191 -0.48600
O 	O 	0.43079 0.13365 0.13365 -0.48600
O 	O 	0.43079 0.30191 0.13365 -0.48600
O 	O 	0.13365 0.13365 0.43079 -0.48600
O 	O 	0.30191 0.43079 0.13365 -0.48600
O 	O 	0.13365 0.13365 0.30191 -0.48600
O 	O 	0.13365 0.30191 0.13365 -0.48600
O 	O 	0.43079 0.13365 0.30191 -0.48600
O 	O 	0.13365 0.43079 0.13365 -0.48600
O 	O 	0.30191 0.13365 0.43079 -0.48600
