data_crystal

_cell_length_a 15.55500
_cell_length_b 15.55500
_cell_length_c 20.03040
_cell_angle_alpha 90.00000
_cell_angle_beta  90.00000
_cell_angle_gamma 90.00000

_symmetry_space_group_name_	'P 1'
_symmetry_space_group_name_H-M	'P 1'

loop_
_symmetry_equiv_pos_as_xyz
  x,y,z

loop_
_atom_site_label
_atom_site_type_symbol
_atom_site_fract_x
_atom_site_fract_y
_atom_site_fract_z
_atom_site_charge
Zn	Zn	0.25000 0.75000 -0.00000 1.07400
Zn	Zn	0.75000 0.25000 0.50000 1.13500
Zn	Zn	0.75000 0.25000 -0.00000 1.07400
Zn	Zn	0.25000 0.75000 0.50000 1.13600
Zn	Zn	0.08306 0.91694 -0.00000 1.07100
Zn	Zn	0.41694 0.58306 -0.00000 1.07100
Zn	Zn	0.58306 0.08306 0.50000 1.13300
Zn	Zn	0.91694 0.41694 0.50000 1.13300
Zn	Zn	0.91694 0.08306 -0.00000 1.07100
Zn	Zn	0.58306 0.41694 -0.00000 1.07100
Zn	Zn	0.41694 0.91694 0.50000 1.13300
Zn	Zn	0.08306 0.58306 0.50000 1.13300
H 	H 	0.15361 0.96940 0.73643 0.07900
H 	H 	0.13887 0.95680 0.84401 0.00600
H 	H 	0.22257 0.05294 0.07080 -0.03600
H 	H 	0.35558 0.84194 0.12089 -0.03000
H 	H 	0.34639 0.53060 0.73643 0.08900
H 	H 	0.36113 0.54320 0.84401 -0.00100
H 	H 	0.27743 0.44706 0.07080 -0.03900
H 	H 	0.14442 0.65806 0.12089 -0.03100
H 	H 	0.53060 0.15361 0.23643 0.07900
H 	H 	0.54320 0.13887 0.34401 -0.01500
H 	H 	0.44706 0.22257 0.57080 -0.01500
H 	H 	0.65806 0.35558 0.62089 -0.01500
H 	H 	0.96940 0.34639 0.23643 0.07700
H 	H 	0.95680 0.36113 0.34401 -0.01500
H 	H 	0.05294 0.27743 0.57080 -0.01100
H 	H 	0.84194 0.14442 0.62089 -0.01500
H 	H 	0.84639 0.46940 0.76357 0.08800
H 	H 	0.86113 0.45680 0.65599 -0.01500
H 	H 	0.77743 0.55294 0.42920 -0.01800
H 	H 	0.64442 0.34194 0.37911 -0.01600
H 	H 	0.65361 0.03060 0.76357 0.08800
H 	H 	0.63887 0.04320 0.65599 -0.01600
H 	H 	0.72257 0.94706 0.42920 -0.01600
H 	H 	0.85558 0.15806 0.37911 -0.01600
H 	H 	0.46940 0.65361 0.26357 0.08000
H 	H 	0.45680 0.63887 0.15599 -0.02500
H 	H 	0.55294 0.72257 0.92920 0.01100
H 	H 	0.34194 0.85558 0.87911 0.00400
H 	H 	0.03060 0.84639 0.26357 0.07200
H 	H 	0.04320 0.86113 0.15599 -0.02000
H 	H 	0.94706 0.77743 0.92920 0.01300
H 	H 	0.15806 0.64442 0.87911 0.00500
H 	H 	0.84639 0.03060 0.26357 0.07200
H 	H 	0.86113 0.04320 0.15599 -0.02000
H 	H 	0.77743 0.94706 0.92920 0.01300
H 	H 	0.64442 0.15806 0.87911 0.00500
H 	H 	0.65361 0.46940 0.26357 0.08000
H 	H 	0.63887 0.45680 0.15599 -0.02500
H 	H 	0.72257 0.55294 0.92920 0.01100
H 	H 	0.85558 0.34194 0.87911 0.00400
H 	H 	0.46940 0.84639 0.76357 0.08800
H 	H 	0.45680 0.86113 0.65599 -0.01500
H 	H 	0.55294 0.77743 0.42920 -0.01800
H 	H 	0.34194 0.64442 0.37911 -0.01600
H 	H 	0.03060 0.65361 0.76357 0.08800
H 	H 	0.04320 0.63887 0.65599 -0.01600
H 	H 	0.94706 0.72257 0.42920 -0.01600
H 	H 	0.15806 0.85558 0.37911 -0.01600
H 	H 	0.15361 0.53060 0.23643 0.07900
H 	H 	0.13887 0.54320 0.34401 -0.01500
H 	H 	0.22257 0.44706 0.57080 -0.01500
H 	H 	0.35558 0.65806 0.62089 -0.01500
H 	H 	0.34639 0.96940 0.23643 0.07700
H 	H 	0.36113 0.95680 0.34401 -0.01500
H 	H 	0.27743 0.05294 0.57080 -0.01100
H 	H 	0.14442 0.84194 0.62089 -0.01500
H 	H 	0.53060 0.34639 0.73643 0.08900
H 	H 	0.54320 0.36113 0.84401 -0.00100
H 	H 	0.44706 0.27743 0.07080 -0.03900
H 	H 	0.65806 0.14442 0.12089 -0.03100
H 	H 	0.96940 0.15361 0.73643 0.07900
H 	H 	0.95680 0.13887 0.84401 0.00600
H 	H 	0.05294 0.22257 0.07080 -0.03600
H 	H 	0.84194 0.35558 0.12089 -0.03000
H 	H 	0.08400 0.08401 0.56291 0.08100
H 	H 	0.41600 0.41599 0.56291 0.08100
H 	H 	0.41599 0.08400 0.06291 0.03800
H 	H 	0.08401 0.41600 0.06291 0.03800
H 	H 	0.91600 0.58400 0.93709 0.12600
H 	H 	0.58400 0.91599 0.93709 0.12600
H 	H 	0.58400 0.58400 0.43709 0.08000
H 	H 	0.91599 0.91600 0.43709 0.08000
C 	C 	0.11938 0.00996 0.71295 -0.16100
C 	C 	0.12814 0.01868 0.64422 0.11100
C 	C 	0.09615 0.99623 0.85854 0.01600
C 	C 	0.18952 0.96586 0.60836 -0.07700
C 	C 	0.24013 0.99468 0.07483 0.00600
C 	C 	0.31317 0.87882 0.10234 -0.00000
C 	C 	0.38062 0.49004 0.71295 -0.17900
C 	C 	0.37186 0.48132 0.64422 0.11600
C 	C 	0.40385 0.50377 0.85854 0.04100
C 	C 	0.31048 0.53414 0.60836 -0.07700
C 	C 	0.25987 0.50532 0.07483 0.01000
C 	C 	0.18683 0.62118 0.10234 -0.00000
C 	C 	0.49004 0.11938 0.21295 -0.17000
C 	C 	0.48132 0.12814 0.14422 0.09100
C 	C 	0.50377 0.09615 0.35854 0.02400
C 	C 	0.53414 0.18952 0.10836 -0.08300
C 	C 	0.50532 0.24013 0.57483 0.03000
C 	C 	0.62118 0.31317 0.60234 0.02100
C 	C 	0.00996 0.38062 0.21295 -0.16700
C 	C 	0.01868 0.37186 0.14422 0.09200
C 	C 	0.99623 0.40385 0.35854 0.02200
C 	C 	0.96586 0.31048 0.10836 -0.08300
C 	C 	0.99468 0.25987 0.57483 0.02400
C 	C 	0.87882 0.18683 0.60234 0.02000
C 	C 	0.88062 0.50996 0.78705 -0.18600
C 	C 	0.87186 0.51868 0.85578 0.13500
C 	C 	0.90385 0.49623 0.64146 0.03000
C 	C 	0.81048 0.46586 0.89164 -0.07000
C 	C 	0.75987 0.49468 0.42517 0.02800
C 	C 	0.68683 0.37882 0.39766 0.02000
C 	C 	0.61938 0.99004 0.78705 -0.18600
C 	C 	0.62814 0.98132 0.85578 0.13400
C 	C 	0.59615 0.00377 0.64146 0.03000
C 	C 	0.68952 0.03414 0.89164 -0.06900
C 	C 	0.74013 0.00532 0.42517 0.02400
C 	C 	0.81317 0.12118 0.39766 0.01900
C 	C 	0.50996 0.61938 0.28705 -0.17900
C 	C 	0.51868 0.62814 0.35578 0.11000
C 	C 	0.49623 0.59615 0.14146 0.01600
C 	C 	0.46586 0.68952 0.39164 -0.07800
C 	C 	0.49468 0.74013 0.92517 0.04900
C 	C 	0.37882 0.81317 0.89766 0.04200
C 	C 	0.99004 0.88062 0.28705 -0.16400
C 	C 	0.98132 0.87186 0.35578 0.10600
C 	C 	0.00377 0.90385 0.14146 -0.00200
C 	C 	0.03414 0.81048 0.39164 -0.07800
C 	C 	0.00532 0.75987 0.92517 0.04500
C 	C 	0.12118 0.68683 0.89766 0.04200
C 	C 	0.88062 0.99004 0.28705 -0.16400
C 	C 	0.87186 0.98132 0.35578 0.10600
C 	C 	0.90385 0.00377 0.14146 -0.00200
C 	C 	0.81048 0.03414 0.39164 -0.07800
C 	C 	0.75987 0.00532 0.92517 0.04500
C 	C 	0.68683 0.12118 0.89766 0.04200
C 	C 	0.61938 0.50996 0.28705 -0.17900
C 	C 	0.62814 0.51868 0.35578 0.11000
C 	C 	0.59615 0.49623 0.14146 0.01600
C 	C 	0.68952 0.46586 0.39164 -0.07800
C 	C 	0.74013 0.49468 0.92517 0.04900
C 	C 	0.81317 0.37882 0.89766 0.04200
C 	C 	0.50996 0.88062 0.78705 -0.18600
C 	C 	0.51868 0.87186 0.85578 0.13500
C 	C 	0.49623 0.90385 0.64146 0.03000
C 	C 	0.46586 0.81048 0.89164 -0.07000
C 	C 	0.49468 0.75987 0.42517 0.02800
C 	C 	0.37882 0.68683 0.39766 0.02000
C 	C 	0.99004 0.61938 0.78705 -0.18600
C 	C 	0.98132 0.62814 0.85578 0.13400
C 	C 	0.00377 0.59615 0.64146 0.03000
C 	C 	0.03414 0.68952 0.89164 -0.06900
C 	C 	0.00532 0.74013 0.42517 0.02400
C 	C 	0.12118 0.81317 0.39766 0.01900
C 	C 	0.11938 0.49004 0.21295 -0.17000
C 	C 	0.12814 0.48132 0.14422 0.09100
C 	C 	0.09615 0.50377 0.35854 0.02400
C 	C 	0.18952 0.53414 0.10836 -0.08300
C 	C 	0.24013 0.50532 0.57483 0.03000
C 	C 	0.31317 0.62118 0.60234 0.02100
C 	C 	0.38062 0.00996 0.21295 -0.16700
C 	C 	0.37186 0.01868 0.14422 0.09200
C 	C 	0.40385 0.99623 0.35854 0.02200
C 	C 	0.31048 0.96586 0.10836 -0.08300
C 	C 	0.25987 0.99468 0.57483 0.02400
C 	C 	0.18683 0.87882 0.60234 0.02000
C 	C 	0.49004 0.38062 0.71295 -0.17900
C 	C 	0.48132 0.37186 0.64422 0.11600
C 	C 	0.50377 0.40385 0.85854 0.04100
C 	C 	0.53414 0.31048 0.60836 -0.07700
C 	C 	0.50532 0.25987 0.07483 0.01000
C 	C 	0.62118 0.18683 0.10234 -0.00000
C 	C 	0.00996 0.11938 0.71295 -0.16100
C 	C 	0.01868 0.12814 0.64422 0.11100
C 	C 	0.99623 0.09615 0.85854 0.01600
C 	C 	0.96586 0.18952 0.60836 -0.07700
C 	C 	0.99468 0.24013 0.07483 0.00600
C 	C 	0.87882 0.31317 0.10234 -0.00000
C 	C 	0.06056 0.06057 0.74734 0.10300
C 	C 	0.07804 0.07804 0.60988 -0.17500
C 	C 	0.05145 0.05146 0.81903 -0.04400
C 	C 	0.43944 0.43943 0.74734 0.12200
C 	C 	0.42196 0.42196 0.60988 -0.18100
C 	C 	0.44855 0.44854 0.81903 -0.07200
C 	C 	0.43943 0.06056 0.24734 0.10100
C 	C 	0.42196 0.07804 0.10988 -0.17300
C 	C 	0.44854 0.05145 0.31903 -0.07100
C 	C 	0.06057 0.43944 0.24734 0.10100
C 	C 	0.07804 0.42196 0.10988 -0.17300
C 	C 	0.05146 0.44855 0.31903 -0.07100
C 	C 	0.93944 0.56057 0.75266 0.12500
C 	C 	0.92196 0.57804 0.89012 -0.18700
C 	C 	0.94855 0.55146 0.68097 -0.07900
C 	C 	0.56056 0.93943 0.75266 0.12500
C 	C 	0.57804 0.92196 0.89012 -0.18700
C 	C 	0.55145 0.94854 0.68097 -0.07900
C 	C 	0.56057 0.56056 0.25266 0.10800
C 	C 	0.57804 0.57804 0.39012 -0.18000
C 	C 	0.55146 0.55145 0.18097 -0.08000
C 	C 	0.93943 0.93944 0.25266 0.09400
C 	C 	0.92196 0.92196 0.39012 -0.17500
C 	C 	0.94854 0.94855 0.18097 -0.05700
N 	N 	0.06899 0.00731 0.92250 -0.19800
N 	N 	0.19933 0.92544 0.04809 -0.30200
N 	N 	0.24447 0.85384 0.06509 -0.28600
N 	N 	0.43101 0.49269 0.92250 -0.20400
N 	N 	0.30067 0.57456 0.04809 -0.30300
N 	N 	0.25553 0.64616 0.06509 -0.28600
N 	N 	0.49269 0.06899 0.42250 -0.25900
N 	N 	0.57456 0.19933 0.54809 -0.26900
N 	N 	0.64616 0.24447 0.56509 -0.26000
N 	N 	0.00731 0.43101 0.42250 -0.25800
N 	N 	0.92544 0.30067 0.54809 -0.26800
N 	N 	0.85384 0.25553 0.56509 -0.26000
N 	N 	0.93101 0.50731 0.57750 -0.25900
N 	N 	0.80067 0.42544 0.45191 -0.26900
N 	N 	0.75553 0.35384 0.43491 -0.26100
N 	N 	0.56899 0.99269 0.57750 -0.25900
N 	N 	0.69933 0.07456 0.45191 -0.26900
N 	N 	0.74447 0.14616 0.43491 -0.26100
N 	N 	0.50731 0.56899 0.07750 -0.29300
N 	N 	0.42544 0.69933 0.95191 -0.21200
N 	N 	0.35384 0.74447 0.93491 -0.21300
N 	N 	0.99269 0.93101 0.07750 -0.28600
N 	N 	0.07456 0.80067 0.95191 -0.21300
N 	N 	0.14616 0.75553 0.93491 -0.21300
N 	N 	0.93101 0.99269 0.07750 -0.28600
N 	N 	0.80067 0.07456 0.95191 -0.21300
N 	N 	0.75553 0.14616 0.93491 -0.21300
N 	N 	0.56899 0.50731 0.07750 -0.29300
N 	N 	0.69933 0.42544 0.95191 -0.21200
N 	N 	0.74447 0.35384 0.93491 -0.21300
N 	N 	0.50731 0.93101 0.57750 -0.25900
N 	N 	0.42544 0.80067 0.45191 -0.26900
N 	N 	0.35384 0.75553 0.43491 -0.26100
N 	N 	0.99269 0.56899 0.57750 -0.25900
N 	N 	0.07456 0.69933 0.45191 -0.26900
N 	N 	0.14616 0.74447 0.43491 -0.26100
N 	N 	0.06899 0.49269 0.42250 -0.25900
N 	N 	0.19933 0.57456 0.54809 -0.26900
N 	N 	0.24447 0.64616 0.56509 -0.26000
N 	N 	0.43101 0.00731 0.42250 -0.25800
N 	N 	0.30067 0.92544 0.54809 -0.26800
N 	N 	0.25553 0.85384 0.56509 -0.26000
N 	N 	0.49269 0.43101 0.92250 -0.20400
N 	N 	0.57456 0.30067 0.04809 -0.30300
N 	N 	0.64616 0.25553 0.06509 -0.28600
N 	N 	0.00731 0.06899 0.92250 -0.19800
N 	N 	0.92544 0.19933 0.04809 -0.30200
N 	N 	0.85384 0.24447 0.06509 -0.28600
