data_crystal

_cell_length_a 7.23350
_cell_length_b 7.62730
_cell_length_c 11.24370
_cell_angle_alpha 107.44400
_cell_angle_beta  106.26700
_cell_angle_gamma 97.03730

_symmetry_space_group_name_	'P 1'
_symmetry_space_group_name_H-M	'P 1'

loop_
_symmetry_equiv_pos_as_xyz
  x,y,z

loop_
_atom_site_label
_atom_site_type_symbol
_atom_site_fract_x
_atom_site_fract_y
_atom_site_fract_z
_atom_site_charge
Ga	Ga	0.70527 0.70527 0.41054 2.08800
Ga	Ga	0.29473 0.29473 0.58946 2.09000
Ga	Ga	0.50000 0.00000 0.50000 2.06600
Ga	Ga	-0.00000 0.50000 0.50000 2.05900
H 	H 	0.34424 0.66050 0.35148 0.34700
H 	H 	0.66400 0.49500 0.52200 0.31400
H 	H 	0.00724 0.69098 0.35148 0.16200
H 	H 	0.85800 0.02700 0.52200 0.22100
H 	H 	0.65576 0.33950 0.64852 0.37000
H 	H 	0.33600 0.50500 0.47800 0.32700
H 	H 	0.99276 0.30902 0.64852 0.54300
H 	H 	0.14200 0.97300 0.47800 0.40600
H 	H 	0.54900 0.29800 -0.00000 0.01600
H 	H 	0.45100 0.70200 -0.00000 0.07800
C 	C 	0.67474 0.31844 0.25088 0.45100
C 	C 	0.57437 0.15717 0.12334 -0.21100
C 	C 	0.57614 0.93244 0.25088 0.50500
C 	C 	0.54897 0.96617 0.12334 0.09800
C 	C 	0.32526 0.68156 0.74912 0.37400
C 	C 	0.42563 0.84283 0.87666 0.09400
C 	C 	0.42386 0.06756 0.74912 0.32100
C 	C 	0.45103 0.03383 0.87666 -0.22400
C 	C 	0.52610 0.18000 -0.00000 0.12600
C 	C 	0.47390 0.82000 -0.00000 -0.07600
O 	O 	0.44447 0.72583 0.41988 -1.01200
O 	O 	0.76886 0.57921 0.53614 -0.92000
O 	O 	0.59430 0.45784 0.26256 -0.59500
O 	O 	0.83304 0.30271 0.33044 -0.53600
O 	O 	0.97541 0.69405 0.41988 -0.76700
O 	O 	0.76728 0.95693 0.53614 -0.79500
O 	O 	0.66826 0.80472 0.26256 -0.56000
O 	O 	0.49740 0.02773 0.33044 -0.68500
O 	O 	0.55553 0.27417 0.58012 -1.04000
O 	O 	0.23114 0.42079 0.46386 -1.00200
O 	O 	0.40570 0.54216 0.73744 -0.57500
O 	O 	0.16696 0.69729 0.66956 -0.60900
O 	O 	0.02459 0.30595 0.58012 -1.26700
O 	O 	0.23272 0.04307 0.46386 -1.11400
O 	O 	0.33174 0.19528 0.73744 -0.60800
O 	O 	0.50260 0.97227 0.66956 -0.46000
