data_crystal

_cell_length_a 6.26200
_cell_length_b 15.51200
_cell_length_c 15.51200
_cell_angle_alpha 120.00000
_cell_angle_beta  90.00000
_cell_angle_gamma 90.00000

_symmetry_space_group_name_	'P 1'
_symmetry_space_group_name_H-M	'P 1'

loop_
_symmetry_equiv_pos_as_xyz
  x,y,z

loop_
_atom_site_label
_atom_site_type_symbol
_atom_site_fract_x
_atom_site_fract_y
_atom_site_fract_z
_atom_site_charge
Zn	Zn	0.85040 0.50000 0.50000 1.19900
Zn	Zn	0.18373 -0.00000 0.50000 1.18800
Zn	Zn	0.51707 0.50000 -0.00000 1.18500
H 	H 	0.21540 0.72360 0.60190 0.09200
H 	H 	0.42610 0.59710 0.58900 0.00500
H 	H 	0.87800 0.66580 0.46190 -0.01500
H 	H 	0.68400 0.79780 0.47670 0.08700
H 	H 	0.54873 0.87830 0.27640 0.08800
H 	H 	0.75943 0.99190 0.40290 0.03600
H 	H 	0.21133 0.79610 0.33420 -0.04000
H 	H 	0.01733 0.67890 0.20220 0.17300
H 	H 	0.88207 0.39810 0.12170 0.00300
H 	H 	0.09277 0.41100 0.00810 -0.00300
H 	H 	0.54467 0.53810 0.20390 -0.00400
H 	H 	0.35067 0.52330 0.32110 0.08700
H 	H 	0.21540 0.27640 0.39810 0.06900
H 	H 	0.42610 0.40290 0.41100 0.00400
H 	H 	0.87800 0.33420 0.53810 -0.01100
H 	H 	0.68400 0.20220 0.52330 0.06900
H 	H 	0.54873 0.12170 0.72360 0.08000
H 	H 	0.75943 0.00810 0.59710 -0.02900
H 	H 	0.21133 0.20390 0.66580 -0.04600
H 	H 	0.01733 0.32110 0.79780 0.18600
H 	H 	0.88207 0.60190 0.87830 0.03300
H 	H 	0.09277 0.58900 0.99190 0.06200
H 	H 	0.54467 0.46190 0.79610 0.00000
H 	H 	0.35067 0.47670 0.67890 0.08900
C 	C 	0.28720 0.85610 0.54230 0.29500
C 	C 	0.42610 0.77370 0.53790 0.01300
C 	C 	0.35020 0.71300 0.57310 -0.09400
C 	C 	0.47720 0.63710 0.56470 0.07300
C 	C 	0.74320 0.67800 0.49080 0.07000
C 	C 	0.62660 0.75660 0.49840 -0.09300
C 	C 	0.62053 0.68620 0.14390 0.27900
C 	C 	0.75943 0.76420 0.22630 0.05600
C 	C 	0.68353 0.86010 0.28700 -0.11200
C 	C 	0.81053 0.92760 0.36290 0.04200
C 	C 	0.07653 0.81280 0.32200 0.20300
C 	C 	0.95993 0.74180 0.24340 -0.28400
C 	C 	0.95387 0.45770 0.31380 0.21900
C 	C 	0.09277 0.46210 0.23580 0.01200
C 	C 	0.01687 0.42690 0.13990 -0.01000
C 	C 	0.14387 0.43530 0.07240 0.01700
C 	C 	0.40987 0.50920 0.18720 0.06000
C 	C 	0.29327 0.50160 0.25820 -0.09400
C 	C 	0.28720 0.14390 0.45770 0.30400
C 	C 	0.42610 0.22630 0.46210 -0.02000
C 	C 	0.35020 0.28700 0.42690 -0.08400
C 	C 	0.47720 0.36290 0.43530 0.05400
C 	C 	0.74320 0.32200 0.50920 0.05200
C 	C 	0.62660 0.24340 0.50160 -0.08100
C 	C 	0.62053 0.31380 0.85610 0.26800
C 	C 	0.75943 0.23580 0.77370 0.07600
C 	C 	0.68353 0.13990 0.71300 -0.13400
C 	C 	0.81053 0.07240 0.63710 0.04900
C 	C 	0.07653 0.18720 0.67800 0.20400
C 	C 	0.95993 0.25820 0.75660 -0.29000
C 	C 	0.95387 0.54230 0.68620 0.22300
C 	C 	0.09277 0.53790 0.76420 0.02300
C 	C 	0.01687 0.57310 0.86010 0.00200
C 	C 	0.14387 0.56470 0.92760 0.03200
C 	C 	0.40987 0.49080 0.81280 0.07100
C 	C 	0.29327 0.49840 0.74180 -0.09100
N 	N 	0.67040 0.61831 0.52341 -0.26700
N 	N 	0.00373 0.90510 0.38169 -0.24200
N 	N 	0.33707 0.47659 0.09490 -0.26800
N 	N 	0.67040 0.38169 0.47659 -0.26500
N 	N 	0.00373 0.09490 0.61831 -0.27700
N 	N 	0.33707 0.52341 0.90510 -0.23500
O 	O 	0.38340 0.91458 0.51939 -0.40400
O 	O 	0.09710 0.85850 0.55960 -0.26700
O 	O 	0.71673 0.60481 0.08542 -0.48100
O 	O 	0.43043 0.70110 0.14150 -0.31800
O 	O 	0.05007 0.48061 0.39519 -0.39600
O 	O 	0.76377 0.44040 0.29890 -0.30600
O 	O 	0.38340 0.08542 0.48061 -0.47500
O 	O 	0.09710 0.14150 0.44040 -0.31900
O 	O 	0.71673 0.39519 0.91458 -0.41400
O 	O 	0.43043 0.29890 0.85850 -0.28200
O 	O 	0.05007 0.51939 0.60481 -0.39100
O 	O 	0.76377 0.55960 0.70110 -0.29000
