data_crystal

_cell_length_a 18.30140
_cell_length_b 18.30140
_cell_length_c 18.30140
_cell_angle_alpha 60.00000
_cell_angle_beta  60.00000
_cell_angle_gamma 60.00000

_symmetry_space_group_name_	'P 1'
_symmetry_space_group_name_H-M	'P 1'

loop_
_symmetry_equiv_pos_as_xyz
  x,y,z

loop_
_atom_site_label
_atom_site_type_symbol
_atom_site_fract_x
_atom_site_fract_y
_atom_site_fract_z
_atom_site_charge
Zn	Zn	0.20640 0.38080 0.20640 1.21000
Zn	Zn	0.38080 0.20640 0.20640 1.21000
Zn	Zn	0.20640 0.20640 0.20640 1.21000
Zn	Zn	0.20640 0.20640 0.38080 1.21000
Zn	Zn	0.61920 0.79360 0.79360 1.21000
Zn	Zn	0.79360 0.61920 0.79360 1.21000
Zn	Zn	0.79360 0.79360 0.79360 1.21000
Zn	Zn	0.79360 0.79360 0.61920 1.21000
H 	H 	0.04850 0.56570 0.04850 0.04400
H 	H 	0.56570 0.04850 0.33730 0.04400
H 	H 	0.04850 0.33730 0.04850 0.04400
H 	H 	0.33730 0.04850 0.56570 0.04400
H 	H 	0.04850 0.04850 0.33730 0.04400
H 	H 	0.56570 0.33730 0.04850 0.04400
H 	H 	0.04850 0.04850 0.56570 0.04400
H 	H 	0.33730 0.56570 0.04850 0.04400
H 	H 	0.04850 0.33730 0.56570 0.04300
H 	H 	0.56570 0.04850 0.04850 0.04300
H 	H 	0.04850 0.56570 0.33730 0.04300
H 	H 	0.33730 0.04850 0.04850 0.04300
H 	H 	0.43430 0.95150 0.95150 0.04300
H 	H 	0.95150 0.43430 0.66270 0.04300
H 	H 	0.66270 0.95150 0.95150 0.04300
H 	H 	0.95150 0.66270 0.43430 0.04300
H 	H 	0.95150 0.95150 0.66270 0.04300
H 	H 	0.66270 0.43430 0.95150 0.04300
H 	H 	0.95150 0.95150 0.43430 0.04300
H 	H 	0.43430 0.66270 0.95150 0.04300
H 	H 	0.66270 0.95150 0.43430 0.04300
H 	H 	0.95150 0.43430 0.95150 0.04300
H 	H 	0.43430 0.95150 0.66270 0.04300
H 	H 	0.95150 0.66270 0.95150 0.04300
C 	C 	0.02640 0.53920 0.02640 -0.00400
C 	C 	0.53920 0.02640 0.40800 -0.00400
C 	C 	0.02640 0.40800 0.02640 -0.00400
C 	C 	0.40800 0.02640 0.53920 -0.00400
C 	C 	0.02640 0.02640 0.40800 -0.00400
C 	C 	0.53920 0.40800 0.02640 -0.00400
C 	C 	0.02640 0.02640 0.53920 -0.00400
C 	C 	0.40800 0.53920 0.02640 -0.00400
C 	C 	0.02640 0.40800 0.53920 -0.00400
C 	C 	0.53920 0.02640 0.02640 -0.00400
C 	C 	0.02640 0.53920 0.40800 -0.00400
C 	C 	0.40800 0.02640 0.02640 -0.00400
C 	C 	0.46080 0.97360 0.97360 -0.00400
C 	C 	0.97360 0.46080 0.59200 -0.00400
C 	C 	0.59200 0.97360 0.97360 -0.00400
C 	C 	0.97360 0.59200 0.46080 -0.00400
C 	C 	0.97360 0.97360 0.59200 -0.00400
C 	C 	0.59200 0.46080 0.97360 -0.00400
C 	C 	0.97360 0.97360 0.46080 -0.00400
C 	C 	0.46080 0.59200 0.97360 -0.00400
C 	C 	0.59200 0.97360 0.46080 -0.00400
C 	C 	0.97360 0.46080 0.97360 -0.00400
C 	C 	0.46080 0.97360 0.59200 -0.00400
C 	C 	0.97360 0.59200 0.97360 -0.00400
C 	C 	0.11050 0.38950 0.11050 0.38000
C 	C 	0.05430 0.44570 0.05430 -0.10200
C 	C 	0.38950 0.11050 0.38950 0.38000
C 	C 	0.44570 0.05430 0.44570 -0.10200
C 	C 	0.11050 0.11050 0.38950 0.38000
C 	C 	0.05430 0.05430 0.44570 -0.10200
C 	C 	0.38950 0.38950 0.11050 0.38000
C 	C 	0.44570 0.44570 0.05430 -0.10200
C 	C 	0.11050 0.38950 0.38950 0.38000
C 	C 	0.05430 0.44570 0.44570 -0.10200
C 	C 	0.38950 0.11050 0.11050 0.38000
C 	C 	0.44570 0.05430 0.05430 -0.10200
C 	C 	0.61050 0.88950 0.88950 0.38000
C 	C 	0.55430 0.94570 0.94570 -0.10200
C 	C 	0.88950 0.61050 0.61050 0.38000
C 	C 	0.94570 0.55430 0.55430 -0.10200
C 	C 	0.88950 0.88950 0.61050 0.38000
C 	C 	0.94570 0.94570 0.55430 -0.10200
C 	C 	0.61050 0.61050 0.88950 0.38000
C 	C 	0.55430 0.55430 0.94570 -0.10200
C 	C 	0.61050 0.88950 0.61050 0.38000
C 	C 	0.55430 0.94570 0.55430 -0.10200
C 	C 	0.88950 0.61050 0.88950 0.38000
C 	C 	0.94570 0.55430 0.94570 -0.10200
O 	O 	0.25000 0.25000 0.25000 -0.95600
O 	O 	0.75000 0.75000 0.75000 -0.95600
O 	O 	0.13330 0.42830 0.13330 -0.50200
O 	O 	0.42830 0.13330 0.30510 -0.50200
O 	O 	0.13330 0.30510 0.13330 -0.50200
O 	O 	0.30510 0.13330 0.42830 -0.50200
O 	O 	0.13330 0.13330 0.30510 -0.50200
O 	O 	0.42830 0.30510 0.13330 -0.50200
O 	O 	0.13330 0.13330 0.42830 -0.50200
O 	O 	0.30510 0.42830 0.13330 -0.50200
O 	O 	0.13330 0.30510 0.42830 -0.50200
O 	O 	0.42830 0.13330 0.13330 -0.50200
O 	O 	0.13330 0.42830 0.30510 -0.50200
O 	O 	0.30510 0.13330 0.13330 -0.50200
O 	O 	0.57170 0.86670 0.86670 -0.50200
O 	O 	0.86670 0.57170 0.69490 -0.50200
O 	O 	0.69490 0.86670 0.86670 -0.50200
O 	O 	0.86670 0.69490 0.57170 -0.50200
O 	O 	0.86670 0.86670 0.69490 -0.50200
O 	O 	0.69490 0.57170 0.86670 -0.50200
O 	O 	0.86670 0.86670 0.57170 -0.50200
O 	O 	0.57170 0.69490 0.86670 -0.50200
O 	O 	0.69490 0.86670 0.57170 -0.50200
O 	O 	0.86670 0.57170 0.86670 -0.50200
O 	O 	0.57170 0.86670 0.69490 -0.50200
O 	O 	0.86670 0.69490 0.86670 -0.50200
