data_crystal

_cell_length_a 15.10690
_cell_length_b 15.34860
_cell_length_c 18.34300
_cell_angle_alpha 90.00000
_cell_angle_beta  90.00000
_cell_angle_gamma 90.00000

_symmetry_space_group_name_	'P 1'
_symmetry_space_group_name_H-M	'P 1'

loop_
_symmetry_equiv_pos_as_xyz
  x,y,z

loop_
_atom_site_label
_atom_site_type_symbol
_atom_site_fract_x
_atom_site_fract_y
_atom_site_fract_z
_atom_site_charge
Zn	Zn	0.86152 0.79435 0.59156 1.17000
Zn	Zn	0.66294 0.48732 0.68670 1.17100
Zn	Zn	0.13848 0.70565 0.09156 1.16900
Zn	Zn	0.33706 0.01268 0.18670 1.17000
Zn	Zn	0.36152 0.20565 0.90844 1.16900
Zn	Zn	0.16294 0.51268 0.81330 1.17000
Zn	Zn	0.63848 0.29435 0.40844 1.17000
Zn	Zn	0.83706 0.98732 0.31330 1.16900
Zn	Zn	0.13848 0.20565 0.40844 1.16900
Zn	Zn	0.33706 0.51268 0.31330 1.17000
Zn	Zn	0.86152 0.29435 0.90844 1.16900
Zn	Zn	0.66294 0.98732 0.81330 1.17000
Zn	Zn	0.63848 0.79435 0.09156 1.16900
Zn	Zn	0.83706 0.48732 0.18670 1.17000
Zn	Zn	0.36152 0.70565 0.59156 1.17000
Zn	Zn	0.16294 0.01268 0.68670 1.16900
H 	H 	0.71890 0.67390 0.65310 -0.06300
H 	H 	0.94180 0.59930 0.57290 -0.00800
H 	H 	0.86060 0.47090 0.61340 -0.00600
H 	H 	0.81450 0.93320 0.47560 -0.06800
H 	H 	0.94770 0.72480 0.44270 -0.01200
H 	H 	0.93570 0.80270 0.32770 -0.00400
H 	H 	0.01680 0.93380 0.59550 -0.07200
H 	H 	0.96240 0.76160 0.74020 -0.00600
H 	H 	0.07190 0.86090 0.79000 -0.00800
H 	H 	0.81100 0.89460 0.72900 -0.06600
H 	H 	0.57460 0.93670 0.66040 -0.00700
H 	H 	0.65720 0.86420 0.56420 -0.01000
H 	H 	0.28110 0.82610 0.15310 -0.06300
H 	H 	0.05820 0.90070 0.07290 -0.00600
H 	H 	0.13940 0.02910 0.11340 -0.01000
H 	H 	0.18550 0.56680 0.97560 -0.06800
H 	H 	0.05230 0.77520 0.94270 -0.01100
H 	H 	0.06430 0.69730 0.82770 -0.00300
H 	H 	0.98320 0.56620 0.09550 -0.07200
H 	H 	0.03760 0.73840 0.24020 -0.00800
H 	H 	0.92810 0.63910 0.29000 -0.00700
H 	H 	0.18900 0.60540 0.22900 -0.06500
H 	H 	0.42540 0.56330 0.16040 -0.00700
H 	H 	0.34280 0.63580 0.06420 -0.01100
H 	H 	0.21890 0.32610 0.84690 -0.06300
H 	H 	0.44180 0.40070 0.92710 -0.00700
H 	H 	0.36060 0.52910 0.88660 -0.00600
H 	H 	0.31450 0.06680 0.02440 -0.06800
H 	H 	0.44770 0.27520 0.05730 -0.01200
H 	H 	0.43570 0.19730 0.17230 -0.00400
H 	H 	0.51680 0.06620 0.90450 -0.07200
H 	H 	0.46240 0.23840 0.75980 -0.00800
H 	H 	0.57190 0.13910 0.71000 -0.00700
H 	H 	0.31100 0.10540 0.77100 -0.06600
H 	H 	0.07460 0.06330 0.83960 -0.00800
H 	H 	0.15720 0.13580 0.93580 -0.01100
H 	H 	0.78110 0.17390 0.34690 -0.06300
H 	H 	0.55820 0.09930 0.42710 -0.00600
H 	H 	0.63940 0.97090 0.38660 -0.00900
H 	H 	0.68550 0.43320 0.52440 -0.06800
H 	H 	0.55230 0.22480 0.55730 -0.01200
H 	H 	0.56430 0.30270 0.67230 -0.00400
H 	H 	0.48320 0.43380 0.40450 -0.07200
H 	H 	0.53760 0.26160 0.25980 -0.00800
H 	H 	0.42810 0.36090 0.21000 -0.00700
H 	H 	0.68900 0.39460 0.27100 -0.06500
H 	H 	0.92540 0.43670 0.33960 -0.00700
H 	H 	0.84280 0.36420 0.43580 -0.01000
H 	H 	0.28110 0.32610 0.34690 -0.06300
H 	H 	0.05820 0.40070 0.42710 -0.00800
H 	H 	0.13940 0.52910 0.38660 -0.00600
H 	H 	0.18550 0.06680 0.52440 -0.06800
H 	H 	0.05230 0.27520 0.55730 -0.01200
H 	H 	0.06430 0.19730 0.67230 -0.00400
H 	H 	0.98320 0.06620 0.40450 -0.07200
H 	H 	0.03760 0.23840 0.25980 -0.00600
H 	H 	0.92810 0.13910 0.21000 -0.00800
H 	H 	0.18900 0.10540 0.27100 -0.06600
H 	H 	0.42540 0.06330 0.33960 -0.00700
H 	H 	0.34280 0.13580 0.43580 -0.01000
H 	H 	0.71890 0.17390 0.84690 -0.06300
H 	H 	0.94180 0.09930 0.92710 -0.00600
H 	H 	0.86060 0.97090 0.88660 -0.01000
H 	H 	0.81450 0.43320 0.02440 -0.06800
H 	H 	0.94770 0.22480 0.05730 -0.01100
H 	H 	0.93570 0.30270 0.17230 -0.00300
H 	H 	0.01680 0.43380 0.90450 -0.07200
H 	H 	0.96240 0.26160 0.75980 -0.00800
H 	H 	0.07190 0.36090 0.71000 -0.00700
H 	H 	0.81100 0.39460 0.77100 -0.06500
H 	H 	0.57460 0.43670 0.83960 -0.00700
H 	H 	0.65720 0.36420 0.93580 -0.01100
H 	H 	0.78110 0.67390 0.15310 -0.06300
H 	H 	0.55820 0.59930 0.07290 -0.00700
H 	H 	0.63940 0.47090 0.11340 -0.00600
H 	H 	0.68550 0.93320 0.97560 -0.06800
H 	H 	0.55230 0.72480 0.94270 -0.01200
H 	H 	0.56430 0.80270 0.82770 -0.00400
H 	H 	0.48320 0.93380 0.09550 -0.07200
H 	H 	0.53760 0.76160 0.24020 -0.00800
H 	H 	0.42810 0.86090 0.29000 -0.00700
H 	H 	0.68900 0.89460 0.22900 -0.06600
H 	H 	0.92540 0.93670 0.16040 -0.00800
H 	H 	0.84280 0.86420 0.06420 -0.01100
H 	H 	0.21890 0.82610 0.65310 -0.06300
H 	H 	0.44180 0.90070 0.57290 -0.00600
H 	H 	0.36060 0.02910 0.61340 -0.00900
H 	H 	0.31450 0.56680 0.47560 -0.06800
H 	H 	0.44770 0.77520 0.44270 -0.01200
H 	H 	0.43570 0.69730 0.32770 -0.00400
H 	H 	0.51680 0.56620 0.59550 -0.07200
H 	H 	0.46240 0.73840 0.74020 -0.00800
H 	H 	0.57190 0.63910 0.79000 -0.00700
H 	H 	0.31100 0.60540 0.72900 -0.06500
H 	H 	0.07460 0.56330 0.66040 -0.00700
H 	H 	0.15720 0.63580 0.56420 -0.01000
C 	C 	0.76590 0.63860 0.63890 0.09000
C 	C 	0.88650 0.59960 0.59520 0.00000
C 	C 	0.84140 0.52820 0.61740 -0.00200
C 	C 	0.84800 0.89040 0.45260 0.10000
C 	C 	0.91880 0.77770 0.43610 0.00300
C 	C 	0.91260 0.82100 0.37220 -0.01100
C 	C 	0.01570 0.90340 0.63940 0.10600
C 	C 	0.98540 0.81020 0.71660 -0.01700
C 	C 	0.04730 0.86470 0.74360 0.01500
C 	C 	0.76150 0.89670 0.69890 0.09300
C 	C 	0.63390 0.92090 0.66260 -0.00300
C 	C 	0.67920 0.87830 0.61010 0.00300
C 	C 	0.23410 0.86140 0.13890 0.09100
C 	C 	0.11350 0.90040 0.09520 -0.00300
C 	C 	0.15860 0.97180 0.11740 0.00500
C 	C 	0.15200 0.60960 0.95260 0.10100
C 	C 	0.08120 0.72230 0.93610 0.00400
C 	C 	0.08740 0.67900 0.87220 -0.01100
C 	C 	0.98430 0.59660 0.13940 0.10100
C 	C 	0.01460 0.68980 0.21660 -0.00700
C 	C 	0.95270 0.63530 0.24360 0.00600
C 	C 	0.23850 0.60330 0.19890 0.09300
C 	C 	0.36610 0.57910 0.16260 -0.00300
C 	C 	0.32080 0.62170 0.11010 0.00300
C 	C 	0.26590 0.36140 0.86110 0.09000
C 	C 	0.38650 0.40040 0.90480 0.00000
C 	C 	0.34140 0.47180 0.88260 -0.00200
C 	C 	0.34800 0.10960 0.04740 0.10100
C 	C 	0.41880 0.22230 0.06390 0.00400
C 	C 	0.41260 0.17900 0.12780 -0.01100
C 	C 	0.51570 0.09660 0.86060 0.10200
C 	C 	0.48540 0.18980 0.78340 -0.00900
C 	C 	0.54730 0.13530 0.75640 0.00800
C 	C 	0.26150 0.10330 0.80110 0.09300
C 	C 	0.13390 0.07910 0.83740 -0.00300
C 	C 	0.17920 0.12170 0.88990 0.00200
C 	C 	0.73410 0.13860 0.36110 0.09100
C 	C 	0.61350 0.09960 0.40480 -0.00200
C 	C 	0.65860 0.02820 0.38260 0.00300
C 	C 	0.65200 0.39040 0.54740 0.10100
C 	C 	0.58120 0.27770 0.56390 0.00400
C 	C 	0.58740 0.32100 0.62780 -0.01100
C 	C 	0.48430 0.40340 0.36060 0.10200
C 	C 	0.51460 0.31020 0.28340 -0.00900
C 	C 	0.45270 0.36470 0.25640 0.00800
C 	C 	0.73850 0.39670 0.30110 0.09300
C 	C 	0.86610 0.42090 0.33740 -0.00200
C 	C 	0.82080 0.37830 0.38990 0.00300
C 	C 	0.23410 0.36140 0.36110 0.09000
C 	C 	0.11350 0.40040 0.40480 0.00000
C 	C 	0.15860 0.47180 0.38260 -0.00200
C 	C 	0.15200 0.10960 0.54740 0.10000
C 	C 	0.08120 0.22230 0.56390 0.00300
C 	C 	0.08740 0.17900 0.62780 -0.01100
C 	C 	0.98430 0.09660 0.36060 0.10600
C 	C 	0.01460 0.18980 0.28340 -0.01700
C 	C 	0.95270 0.13530 0.25640 0.01500
C 	C 	0.23850 0.10330 0.30110 0.09300
C 	C 	0.36610 0.07910 0.33740 -0.00300
C 	C 	0.32080 0.12170 0.38990 0.00300
C 	C 	0.76590 0.13860 0.86110 0.09100
C 	C 	0.88650 0.09960 0.90480 -0.00300
C 	C 	0.84140 0.02820 0.88260 0.00500
C 	C 	0.84800 0.39040 0.04740 0.10100
C 	C 	0.91880 0.27770 0.06390 0.00400
C 	C 	0.91260 0.32100 0.12780 -0.01100
C 	C 	0.01570 0.40340 0.86060 0.10100
C 	C 	0.98540 0.31020 0.78340 -0.00700
C 	C 	0.04730 0.36470 0.75640 0.00600
C 	C 	0.76150 0.39670 0.80110 0.09300
C 	C 	0.63390 0.42090 0.83740 -0.00300
C 	C 	0.67920 0.37830 0.88990 0.00300
C 	C 	0.73410 0.63860 0.13890 0.09000
C 	C 	0.61350 0.59960 0.09520 0.00000
C 	C 	0.65860 0.52820 0.11740 -0.00200
C 	C 	0.65200 0.89040 0.95260 0.10100
C 	C 	0.58120 0.77770 0.93610 0.00400
C 	C 	0.58740 0.82100 0.87220 -0.01100
C 	C 	0.48430 0.90340 0.13940 0.10200
C 	C 	0.51460 0.81020 0.21660 -0.00900
C 	C 	0.45270 0.86470 0.24360 0.00800
C 	C 	0.73850 0.89670 0.19890 0.09300
C 	C 	0.86610 0.92090 0.16260 -0.00300
C 	C 	0.82080 0.87830 0.11010 0.00200
C 	C 	0.26590 0.86140 0.63890 0.09100
C 	C 	0.38650 0.90040 0.59520 -0.00200
C 	C 	0.34140 0.97180 0.61740 0.00300
C 	C 	0.34800 0.60960 0.45260 0.10100
C 	C 	0.41880 0.72230 0.43610 0.00400
C 	C 	0.41260 0.67900 0.37220 -0.01100
C 	C 	0.51570 0.59660 0.63940 0.10200
C 	C 	0.48540 0.68980 0.71660 -0.00900
C 	C 	0.54730 0.63530 0.74360 0.00800
C 	C 	0.26150 0.60330 0.69890 0.09300
C 	C 	0.13390 0.57910 0.66260 -0.00200
C 	C 	0.17920 0.62170 0.61010 0.00300
N 	N 	0.76560 0.55390 0.64620 -0.29400
N 	N 	0.83920 0.66940 0.60990 -0.29900
N 	N 	0.86900 0.89420 0.38350 -0.29900
N 	N 	0.87750 0.82100 0.48730 -0.30600
N 	N 	0.06690 0.92410 0.69470 -0.29800
N 	N 	0.96310 0.83700 0.65080 -0.29700
N 	N 	0.68730 0.93560 0.71760 -0.30200
N 	N 	0.75940 0.86050 0.63400 -0.29300
N 	N 	0.23440 0.94610 0.14620 -0.29500
N 	N 	0.16080 0.83060 0.10990 -0.29900
N 	N 	0.13100 0.60580 0.88350 -0.29900
N 	N 	0.12250 0.67900 0.98730 -0.30500
N 	N 	0.93310 0.57590 0.19470 -0.29700
N 	N 	0.03690 0.66300 0.15080 -0.29600
N 	N 	0.31270 0.56440 0.21760 -0.30200
N 	N 	0.24060 0.63950 0.13400 -0.29300
N 	N 	0.26560 0.44610 0.85380 -0.29400
N 	N 	0.33920 0.33060 0.89010 -0.29900
N 	N 	0.36900 0.10580 0.11650 -0.29900
N 	N 	0.37750 0.17900 0.01270 -0.30500
N 	N 	0.56690 0.07590 0.80530 -0.29800
N 	N 	0.46310 0.16300 0.84920 -0.29600
N 	N 	0.18730 0.06440 0.78240 -0.30200
N 	N 	0.25940 0.13950 0.86600 -0.29300
N 	N 	0.73440 0.05390 0.35380 -0.29400
N 	N 	0.66080 0.16940 0.39010 -0.29900
N 	N 	0.63100 0.39420 0.61650 -0.29900
N 	N 	0.62250 0.32100 0.51270 -0.30500
N 	N 	0.43310 0.42410 0.30530 -0.29800
N 	N 	0.53690 0.33700 0.34920 -0.29600
N 	N 	0.81270 0.43560 0.28240 -0.30200
N 	N 	0.74060 0.36050 0.36600 -0.29300
N 	N 	0.23440 0.44610 0.35380 -0.29400
N 	N 	0.16080 0.33060 0.39010 -0.29900
N 	N 	0.13100 0.10580 0.61650 -0.29900
N 	N 	0.12250 0.17900 0.51270 -0.30600
N 	N 	0.93310 0.07590 0.30530 -0.29800
N 	N 	0.03690 0.16300 0.34920 -0.29700
N 	N 	0.31270 0.06440 0.28240 -0.30200
N 	N 	0.24060 0.13950 0.36600 -0.29300
N 	N 	0.76560 0.05390 0.85380 -0.29500
N 	N 	0.83920 0.16940 0.89010 -0.29900
N 	N 	0.86900 0.39420 0.11650 -0.29900
N 	N 	0.87750 0.32100 0.01270 -0.30500
N 	N 	0.06690 0.42410 0.80530 -0.29700
N 	N 	0.96310 0.33700 0.84920 -0.29600
N 	N 	0.68730 0.43560 0.78240 -0.30200
N 	N 	0.75940 0.36050 0.86600 -0.29300
N 	N 	0.73440 0.55390 0.14620 -0.29400
N 	N 	0.66080 0.66940 0.10990 -0.29900
N 	N 	0.63100 0.89420 0.88350 -0.29900
N 	N 	0.62250 0.82100 0.98730 -0.30500
N 	N 	0.43310 0.92410 0.19470 -0.29800
N 	N 	0.53690 0.83700 0.15080 -0.29600
N 	N 	0.81270 0.93560 0.21760 -0.30200
N 	N 	0.74060 0.86050 0.13400 -0.29300
N 	N 	0.26560 0.94610 0.64620 -0.29400
N 	N 	0.33920 0.83060 0.60990 -0.29900
N 	N 	0.36900 0.60580 0.38350 -0.29900
N 	N 	0.37750 0.67900 0.48730 -0.30500
N 	N 	0.56690 0.57590 0.69470 -0.29800
N 	N 	0.46310 0.66300 0.65080 -0.29600
N 	N 	0.18730 0.56440 0.71760 -0.30200
N 	N 	0.25940 0.63950 0.63400 -0.29300
