data_crystal

_cell_length_a 15.37900
_cell_length_b 15.44900
_cell_length_c 18.40700
_cell_angle_alpha 90.00000
_cell_angle_beta  90.00000
_cell_angle_gamma 90.00000

_symmetry_space_group_name_	'P 1'
_symmetry_space_group_name_H-M	'P 1'

loop_
_symmetry_equiv_pos_as_xyz
  x,y,z

loop_
_atom_site_label
_atom_site_type_symbol
_atom_site_fract_x
_atom_site_fract_y
_atom_site_fract_z
_atom_site_charge
Zn	Zn	0.79948 0.86037 0.59386 1.16800
Zn	Zn	0.49121 0.66418 0.68466 1.17000
Zn	Zn	0.70052 0.13963 0.09386 1.16800
Zn	Zn	0.00879 0.33582 0.18466 1.17000
Zn	Zn	0.20052 0.36037 0.90614 1.16800
Zn	Zn	0.50879 0.16418 0.81534 1.17000
Zn	Zn	0.29948 0.63963 0.40614 1.16900
Zn	Zn	0.99121 0.83582 0.31534 1.16900
Zn	Zn	0.20052 0.13963 0.40614 1.16900
Zn	Zn	0.50879 0.33582 0.31534 1.17100
Zn	Zn	0.29948 0.86037 0.90614 1.16900
Zn	Zn	0.99121 0.66418 0.81534 1.17100
Zn	Zn	0.79948 0.63963 0.09386 1.16900
Zn	Zn	0.49121 0.83582 0.18466 1.17100
Zn	Zn	0.70052 0.36037 0.59386 1.17000
Zn	Zn	0.00879 0.16418 0.68466 1.17000
H 	H 	0.67880 0.71940 0.65320 -0.05900
H 	H 	0.60360 0.94120 0.57570 -0.00500
H 	H 	0.47450 0.86090 0.61410 -0.00200
H 	H 	0.93680 0.81160 0.47770 -0.06900
H 	H 	0.73300 0.95180 0.44540 -0.00500
H 	H 	0.81170 0.93910 0.33200 -0.00600
H 	H 	0.93670 0.00970 0.59520 -0.06600
H 	H 	0.76360 0.96400 0.74280 -0.00400
H 	H 	0.85760 0.07880 0.78670 -0.00500
H 	H 	0.90180 0.81130 0.73020 -0.06400
H 	H 	0.94150 0.57810 0.65990 -0.00200
H 	H 	0.86330 0.65740 0.56580 -0.00600
H 	H 	0.82120 0.28060 0.15320 -0.05900
H 	H 	0.89640 0.05880 0.07570 -0.00200
H 	H 	0.02550 0.13910 0.11410 -0.00600
H 	H 	0.56320 0.18840 0.97770 -0.06900
H 	H 	0.76700 0.04820 0.94540 -0.00400
H 	H 	0.68830 0.06090 0.83200 -0.00500
H 	H 	0.56330 0.99030 0.09520 -0.06600
H 	H 	0.73640 0.03600 0.24280 -0.00600
H 	H 	0.64240 0.92120 0.28670 -0.00300
H 	H 	0.59820 0.18870 0.23020 -0.06300
H 	H 	0.55850 0.42190 0.15990 -0.00300
H 	H 	0.63670 0.34260 0.06580 -0.00600
H 	H 	0.32120 0.21940 0.84680 -0.06000
H 	H 	0.39640 0.44120 0.92430 -0.00400
H 	H 	0.52550 0.36090 0.88590 -0.00200
H 	H 	0.06320 0.31160 0.02230 -0.06900
H 	H 	0.26700 0.45180 0.05460 -0.00500
H 	H 	0.18830 0.43910 0.16800 -0.00500
H 	H 	0.06330 0.50970 0.90480 -0.06600
H 	H 	0.23640 0.46400 0.75720 -0.00600
H 	H 	0.14240 0.57880 0.71330 -0.00400
H 	H 	0.09820 0.31130 0.76980 -0.06300
H 	H 	0.05850 0.07810 0.84010 -0.00400
H 	H 	0.13670 0.15740 0.93420 -0.00700
H 	H 	0.17880 0.78060 0.34680 -0.05900
H 	H 	0.10360 0.55880 0.42430 -0.00300
H 	H 	0.97450 0.63910 0.38590 -0.00400
H 	H 	0.43680 0.68840 0.52230 -0.06900
H 	H 	0.23300 0.54820 0.55460 -0.00500
H 	H 	0.31170 0.56090 0.66800 -0.00500
H 	H 	0.43670 0.49030 0.40480 -0.06700
H 	H 	0.26360 0.53600 0.25720 -0.00600
H 	H 	0.35760 0.42120 0.21330 -0.00400
H 	H 	0.40180 0.68870 0.26980 -0.06300
H 	H 	0.44150 0.92190 0.34010 -0.00300
H 	H 	0.36330 0.84260 0.43420 -0.00600
H 	H 	0.32120 0.28060 0.34680 -0.05900
H 	H 	0.39640 0.05880 0.42430 -0.00500
H 	H 	0.52550 0.13910 0.38590 -0.00200
H 	H 	0.06320 0.18840 0.52230 -0.06900
H 	H 	0.26700 0.04820 0.55460 -0.00500
H 	H 	0.18830 0.06090 0.66800 -0.00600
H 	H 	0.06330 0.99030 0.40480 -0.06600
H 	H 	0.23640 0.03600 0.25720 -0.00400
H 	H 	0.14240 0.92120 0.21330 -0.00500
H 	H 	0.09820 0.18870 0.26980 -0.06400
H 	H 	0.05850 0.42190 0.34010 -0.00200
H 	H 	0.13670 0.34260 0.43420 -0.00600
H 	H 	0.17880 0.71940 0.84680 -0.05900
H 	H 	0.10360 0.94120 0.92430 -0.00200
H 	H 	0.97450 0.86090 0.88590 -0.00600
H 	H 	0.43680 0.81160 0.02230 -0.06900
H 	H 	0.23300 0.95180 0.05460 -0.00400
H 	H 	0.31170 0.93910 0.16800 -0.00500
H 	H 	0.43670 0.00970 0.90480 -0.06600
H 	H 	0.26360 0.96400 0.75720 -0.00600
H 	H 	0.35760 0.07880 0.71330 -0.00300
H 	H 	0.40180 0.81130 0.76980 -0.06300
H 	H 	0.44150 0.57810 0.84010 -0.00300
H 	H 	0.36330 0.65740 0.93420 -0.00600
H 	H 	0.67880 0.78060 0.15320 -0.06000
H 	H 	0.60360 0.55880 0.07570 -0.00400
H 	H 	0.47450 0.63910 0.11410 -0.00200
H 	H 	0.93680 0.68840 0.97770 -0.06900
H 	H 	0.73300 0.54820 0.94540 -0.00500
H 	H 	0.81170 0.56090 0.83200 -0.00500
H 	H 	0.93670 0.49030 0.09520 -0.06600
H 	H 	0.76360 0.53600 0.24280 -0.00600
H 	H 	0.85760 0.42120 0.28670 -0.00400
H 	H 	0.90180 0.68870 0.23020 -0.06300
H 	H 	0.94150 0.92190 0.15990 -0.00400
H 	H 	0.86330 0.84260 0.06580 -0.00700
H 	H 	0.82120 0.21940 0.65320 -0.05900
H 	H 	0.89640 0.44120 0.57570 -0.00300
H 	H 	0.02550 0.36090 0.61410 -0.00400
H 	H 	0.56320 0.31160 0.47770 -0.06900
H 	H 	0.76700 0.45180 0.44540 -0.00500
H 	H 	0.68830 0.43910 0.33200 -0.00500
H 	H 	0.56330 0.50970 0.59520 -0.06700
H 	H 	0.73640 0.46400 0.74280 -0.00600
H 	H 	0.64240 0.57880 0.78670 -0.00400
H 	H 	0.59820 0.31130 0.73020 -0.06300
H 	H 	0.55850 0.07810 0.65990 -0.00300
H 	H 	0.63670 0.15740 0.56580 -0.00600
C 	C 	0.64350 0.76540 0.63940 0.08300
C 	C 	0.60340 0.88650 0.59690 -0.00500
C 	C 	0.53160 0.84180 0.61800 -0.00900
C 	C 	0.89510 0.84590 0.45520 0.11000
C 	C 	0.78450 0.92130 0.43860 -0.01300
C 	C 	0.82840 0.91460 0.37600 -0.00700
C 	C 	0.90480 0.01270 0.63800 0.09800
C 	C 	0.81050 0.98730 0.71770 -0.01500
C 	C 	0.86270 0.05100 0.74210 0.00200
C 	C 	0.90210 0.76250 0.70060 0.08700
C 	C 	0.92410 0.63560 0.66290 -0.00800
C 	C 	0.88050 0.67940 0.61060 -0.00500
C 	C 	0.85650 0.23460 0.13940 0.08300
C 	C 	0.89660 0.11350 0.09690 -0.00800
C 	C 	0.96840 0.15820 0.11800 -0.00200
C 	C 	0.60490 0.15410 0.95520 0.11100
C 	C 	0.71550 0.07870 0.93860 -0.01200
C 	C 	0.67160 0.08540 0.87600 -0.00600
C 	C 	0.59520 0.98730 0.13800 0.09300
C 	C 	0.68950 0.01270 0.21770 -0.00600
C 	C 	0.63730 0.94900 0.24210 -0.00700
C 	C 	0.59790 0.23750 0.20060 0.08700
C 	C 	0.57590 0.36440 0.16290 -0.00800
C 	C 	0.61950 0.32060 0.11060 -0.00500
C 	C 	0.35650 0.26540 0.86060 0.08300
C 	C 	0.39660 0.38650 0.90310 -0.00500
C 	C 	0.46840 0.34180 0.88200 -0.00900
C 	C 	0.10490 0.34590 0.04480 0.11100
C 	C 	0.21550 0.42130 0.06140 -0.01200
C 	C 	0.17160 0.41460 0.12400 -0.00600
C 	C 	0.09520 0.51270 0.86200 0.09400
C 	C 	0.18950 0.48730 0.78230 -0.00700
C 	C 	0.13730 0.55100 0.75790 -0.00500
C 	C 	0.09790 0.26250 0.79940 0.08700
C 	C 	0.07590 0.13560 0.83710 -0.00800
C 	C 	0.11950 0.17940 0.88940 -0.00500
C 	C 	0.14350 0.73460 0.36060 0.08300
C 	C 	0.10340 0.61350 0.40310 -0.00700
C 	C 	0.03160 0.65820 0.38200 -0.00500
C 	C 	0.39510 0.65410 0.54480 0.11100
C 	C 	0.28450 0.57870 0.56140 -0.01200
C 	C 	0.32840 0.58540 0.62400 -0.00600
C 	C 	0.40480 0.48730 0.36200 0.09400
C 	C 	0.31050 0.51270 0.28230 -0.00700
C 	C 	0.36270 0.44900 0.25790 -0.00500
C 	C 	0.40210 0.73750 0.29940 0.08700
C 	C 	0.42410 0.86440 0.33710 -0.00800
C 	C 	0.38050 0.82060 0.38940 -0.00500
C 	C 	0.35650 0.23460 0.36060 0.08300
C 	C 	0.39660 0.11350 0.40310 -0.00500
C 	C 	0.46840 0.15820 0.38200 -0.00900
C 	C 	0.10490 0.15410 0.54480 0.11000
C 	C 	0.21550 0.07870 0.56140 -0.01300
C 	C 	0.17160 0.08540 0.62400 -0.00700
C 	C 	0.09520 0.98730 0.36200 0.09800
C 	C 	0.18950 0.01270 0.28230 -0.01500
C 	C 	0.13730 0.94900 0.25790 0.00200
C 	C 	0.09790 0.23750 0.29940 0.08700
C 	C 	0.07590 0.36440 0.33710 -0.00800
C 	C 	0.11950 0.32060 0.38940 -0.00500
C 	C 	0.14350 0.76540 0.86060 0.08300
C 	C 	0.10340 0.88650 0.90310 -0.00800
C 	C 	0.03160 0.84180 0.88200 -0.00200
C 	C 	0.39510 0.84590 0.04480 0.11100
C 	C 	0.28450 0.92130 0.06140 -0.01200
C 	C 	0.32840 0.91460 0.12400 -0.00600
C 	C 	0.40480 0.01270 0.86200 0.09300
C 	C 	0.31050 0.98730 0.78230 -0.00600
C 	C 	0.36270 0.05100 0.75790 -0.00700
C 	C 	0.40210 0.76250 0.79940 0.08700
C 	C 	0.42410 0.63560 0.83710 -0.00800
C 	C 	0.38050 0.67940 0.88940 -0.00500
C 	C 	0.64350 0.73460 0.13940 0.08300
C 	C 	0.60340 0.61350 0.09690 -0.00500
C 	C 	0.53160 0.65820 0.11800 -0.00900
C 	C 	0.89510 0.65410 0.95520 0.11100
C 	C 	0.78450 0.57870 0.93860 -0.01200
C 	C 	0.82840 0.58540 0.87600 -0.00600
C 	C 	0.90480 0.48730 0.13800 0.09400
C 	C 	0.81050 0.51270 0.21770 -0.00700
C 	C 	0.86270 0.44900 0.24210 -0.00500
C 	C 	0.90210 0.73750 0.20060 0.08700
C 	C 	0.92410 0.86440 0.16290 -0.00800
C 	C 	0.88050 0.82060 0.11060 -0.00500
C 	C 	0.85650 0.26540 0.63940 0.08300
C 	C 	0.89660 0.38650 0.59690 -0.00700
C 	C 	0.96840 0.34180 0.61800 -0.00500
C 	C 	0.60490 0.34590 0.45520 0.11100
C 	C 	0.71550 0.42130 0.43860 -0.01200
C 	C 	0.67160 0.41460 0.37600 -0.00600
C 	C 	0.59520 0.51270 0.63800 0.09400
C 	C 	0.68950 0.48730 0.71770 -0.00700
C 	C 	0.63730 0.55100 0.74210 -0.00500
C 	C 	0.59790 0.26250 0.70060 0.08700
C 	C 	0.57590 0.13560 0.66290 -0.00800
C 	C 	0.61950 0.17940 0.61060 -0.00500
N 	N 	0.55760 0.76420 0.64580 -0.29200
N 	N 	0.67410 0.83810 0.61180 -0.29400
N 	N 	0.90000 0.86700 0.38671 -0.30100
N 	N 	0.82770 0.87620 0.49026 -0.30400
N 	N 	0.92350 0.06780 0.69141 -0.29300
N 	N 	0.83740 0.96290 0.65115 -0.29500
N 	N 	0.93830 0.68850 0.72014 -0.29700
N 	N 	0.86640 0.76100 0.63502 -0.29000
N 	N 	0.94240 0.23580 0.14580 -0.29300
N 	N 	0.82590 0.16190 0.11180 -0.29300
N 	N 	0.60000 0.13300 0.88671 -0.30100
N 	N 	0.67230 0.12380 0.99026 -0.30300
N 	N 	0.57650 0.93220 0.19141 -0.29300
N 	N 	0.66260 0.03710 0.15115 -0.29400
N 	N 	0.56170 0.31150 0.22014 -0.29700
N 	N 	0.63360 0.23900 0.13502 -0.29000
N 	N 	0.44240 0.26420 0.85420 -0.29200
N 	N 	0.32590 0.33810 0.88820 -0.29400
N 	N 	0.10000 0.36700 0.11329 -0.30100
N 	N 	0.17230 0.37620 0.00974 -0.30300
N 	N 	0.07650 0.56780 0.80859 -0.29300
N 	N 	0.16260 0.46290 0.84885 -0.29400
N 	N 	0.06170 0.18850 0.77986 -0.29800
N 	N 	0.13360 0.26100 0.86498 -0.29000
N 	N 	0.05760 0.73580 0.35420 -0.29200
N 	N 	0.17410 0.66190 0.38820 -0.29300
N 	N 	0.40000 0.63300 0.61329 -0.30100
N 	N 	0.32770 0.62380 0.50974 -0.30300
N 	N 	0.42350 0.43220 0.30859 -0.29300
N 	N 	0.33740 0.53710 0.34885 -0.29400
N 	N 	0.43830 0.81150 0.27986 -0.29700
N 	N 	0.36640 0.73900 0.36498 -0.29000
N 	N 	0.44240 0.23580 0.35420 -0.29200
N 	N 	0.32590 0.16190 0.38820 -0.29400
N 	N 	0.10000 0.13300 0.61329 -0.30100
N 	N 	0.17230 0.12380 0.50974 -0.30400
N 	N 	0.07650 0.93220 0.30859 -0.29300
N 	N 	0.16260 0.03710 0.34885 -0.29500
N 	N 	0.06170 0.31150 0.27986 -0.29700
N 	N 	0.13360 0.23900 0.36498 -0.29000
N 	N 	0.05760 0.76420 0.85420 -0.29300
N 	N 	0.17410 0.83810 0.88820 -0.29300
N 	N 	0.40000 0.86700 0.11329 -0.30100
N 	N 	0.32770 0.87620 0.00974 -0.30300
N 	N 	0.42350 0.06780 0.80859 -0.29300
N 	N 	0.33740 0.96290 0.84885 -0.29400
N 	N 	0.43830 0.68850 0.77986 -0.29700
N 	N 	0.36640 0.76100 0.86498 -0.29000
N 	N 	0.55760 0.73580 0.14580 -0.29200
N 	N 	0.67410 0.66190 0.11180 -0.29400
N 	N 	0.90000 0.63300 0.88671 -0.30100
N 	N 	0.82770 0.62380 0.99026 -0.30300
N 	N 	0.92350 0.43220 0.19141 -0.29300
N 	N 	0.83740 0.53710 0.15115 -0.29400
N 	N 	0.93830 0.81150 0.22014 -0.29800
N 	N 	0.86640 0.73900 0.13502 -0.29000
N 	N 	0.94240 0.26420 0.64580 -0.29200
N 	N 	0.82590 0.33810 0.61180 -0.29300
N 	N 	0.60000 0.36700 0.38671 -0.30100
N 	N 	0.67230 0.37620 0.49026 -0.30300
N 	N 	0.57650 0.56780 0.69141 -0.29300
N 	N 	0.66260 0.46290 0.65115 -0.29400
N 	N 	0.56170 0.18850 0.72014 -0.29700
N 	N 	0.63360 0.26100 0.63502 -0.29000
