data_crystal

_cell_length_a 9.80100
_cell_length_b 24.10400
_cell_length_c 24.35600
_cell_angle_alpha 90.00000
_cell_angle_beta  90.00000
_cell_angle_gamma 90.00000

_symmetry_space_group_name_	'P 1'
_symmetry_space_group_name_H-M	'P 1'

loop_
_symmetry_equiv_pos_as_xyz
  x,y,z

loop_
_atom_site_label
_atom_site_type_symbol
_atom_site_fract_x
_atom_site_fract_y
_atom_site_fract_z
_atom_site_charge
Zn	Zn	0.02466 0.82422 0.49944 1.16600
Zn	Zn	0.00040 0.00059 0.32337 1.16800
Zn	Zn	0.47534 0.17578 0.99944 1.16700
Zn	Zn	0.49960 0.99941 0.82337 1.16800
Zn	Zn	0.97534 0.32422 0.00056 1.16700
Zn	Zn	0.99960 0.50059 0.17663 1.16800
Zn	Zn	0.52466 0.67578 0.50056 1.16700
Zn	Zn	0.50040 0.49941 0.67663 1.16900
Zn	Zn	0.97534 0.17578 0.50056 1.16700
Zn	Zn	0.99960 0.99941 0.67663 1.16900
Zn	Zn	0.52466 0.82422 0.00056 1.16800
Zn	Zn	0.50040 0.00059 0.17663 1.16900
Zn	Zn	0.02466 0.67578 0.99944 1.16700
Zn	Zn	0.00040 0.49941 0.82337 1.16800
Zn	Zn	0.47534 0.32422 0.49944 1.16700
Zn	Zn	0.49960 0.50059 0.32337 1.16900
H 	H 	0.73150 0.77630 0.53090 -0.05800
H 	H 	0.78700 0.65670 0.42620 -0.00500
H 	H 	0.98820 0.71560 0.42550 -0.00300
H 	H 	0.97880 0.94560 0.44250 -0.06200
H 	H 	0.06710 0.93960 0.55970 -0.06300
H 	H 	0.84840 0.81440 0.60930 -0.00600
H 	H 	0.84240 0.88500 0.67990 0.00200
H 	H 	0.30100 0.96900 0.27690 -0.05900
H 	H 	0.01480 0.05550 0.20500 0.00000
H 	H 	0.21330 0.05280 0.14480 -0.00800
H 	H 	0.11270 0.87820 0.30710 -0.00700
H 	H 	0.12400 0.80980 0.38000 -0.00800
H 	H 	0.76850 0.22370 0.03090 -0.05800
H 	H 	0.71300 0.34330 0.92620 -0.00500
H 	H 	0.51180 0.28440 0.92550 -0.00300
H 	H 	0.52120 0.05440 0.94250 -0.06300
H 	H 	0.43290 0.06040 0.05970 -0.06400
H 	H 	0.65160 0.18560 0.10930 -0.00600
H 	H 	0.65760 0.11500 0.17990 0.00100
H 	H 	0.19900 0.03100 0.77690 -0.05900
H 	H 	0.48520 0.94450 0.70500 -0.00000
H 	H 	0.28670 0.94720 0.64480 -0.00800
H 	H 	0.38730 0.12180 0.80710 -0.00700
H 	H 	0.37600 0.19020 0.88000 -0.00800
H 	H 	0.26850 0.27630 0.96910 -0.05700
H 	H 	0.21300 0.15670 0.07380 -0.00500
H 	H 	0.01180 0.21560 0.07450 -0.00200
H 	H 	0.02120 0.44560 0.05750 -0.06000
H 	H 	0.93290 0.43960 0.94030 -0.06400
H 	H 	0.15160 0.31440 0.89070 -0.00600
H 	H 	0.15760 0.38500 0.82010 0.00100
H 	H 	0.69900 0.46900 0.22310 -0.05900
H 	H 	0.98520 0.55550 0.29500 -0.00000
H 	H 	0.78670 0.55280 0.35520 -0.00800
H 	H 	0.88730 0.37820 0.19290 -0.00800
H 	H 	0.87600 0.30980 0.12000 -0.00800
H 	H 	0.23150 0.72370 0.46910 -0.05800
H 	H 	0.28700 0.84330 0.57380 -0.00500
H 	H 	0.48820 0.78440 0.57450 -0.00300
H 	H 	0.47880 0.55440 0.55750 -0.06300
H 	H 	0.56710 0.56040 0.44030 -0.06400
H 	H 	0.34840 0.68560 0.39070 -0.00600
H 	H 	0.34240 0.61500 0.32010 0.00100
H 	H 	0.80100 0.53100 0.72310 -0.05800
H 	H 	0.51480 0.44450 0.79500 -0.00100
H 	H 	0.71330 0.44720 0.85520 -0.00800
H 	H 	0.61270 0.62180 0.69290 -0.00700
H 	H 	0.62400 0.69020 0.62000 -0.00700
H 	H 	0.26850 0.22370 0.46910 -0.05800
H 	H 	0.21300 0.34330 0.57380 -0.00500
H 	H 	0.01180 0.28440 0.57450 -0.00300
H 	H 	0.02120 0.05440 0.55750 -0.06200
H 	H 	0.93290 0.06040 0.44030 -0.06300
H 	H 	0.15160 0.18560 0.39070 -0.00600
H 	H 	0.15760 0.11500 0.32010 0.00200
H 	H 	0.69900 0.03100 0.72310 -0.05900
H 	H 	0.98520 0.94450 0.79500 0.00000
H 	H 	0.78670 0.94720 0.85520 -0.00800
H 	H 	0.88730 0.12180 0.69290 -0.00700
H 	H 	0.87600 0.19020 0.62000 -0.00800
H 	H 	0.23150 0.77630 0.96910 -0.05800
H 	H 	0.28700 0.65670 0.07380 -0.00500
H 	H 	0.48820 0.71560 0.07450 -0.00300
H 	H 	0.47880 0.94560 0.05750 -0.06300
H 	H 	0.56710 0.93960 0.94030 -0.06400
H 	H 	0.34840 0.81440 0.89070 -0.00600
H 	H 	0.34240 0.88500 0.82010 0.00100
H 	H 	0.80100 0.96900 0.22310 -0.05900
H 	H 	0.51480 0.05550 0.29500 -0.00000
H 	H 	0.71330 0.05280 0.35520 -0.00800
H 	H 	0.61270 0.87820 0.19290 -0.00700
H 	H 	0.62400 0.80980 0.12000 -0.00800
H 	H 	0.73150 0.72370 0.03090 -0.05700
H 	H 	0.78700 0.84330 0.92620 -0.00500
H 	H 	0.98820 0.78440 0.92550 -0.00200
H 	H 	0.97880 0.55440 0.94250 -0.06000
H 	H 	0.06710 0.56040 0.05970 -0.06400
H 	H 	0.84840 0.68560 0.10930 -0.00600
H 	H 	0.84240 0.61500 0.17990 0.00100
H 	H 	0.30100 0.53100 0.77690 -0.05900
H 	H 	0.01480 0.44450 0.70500 -0.00000
H 	H 	0.21330 0.44720 0.64480 -0.00800
H 	H 	0.11270 0.62180 0.80710 -0.00800
H 	H 	0.12400 0.69020 0.88000 -0.00800
H 	H 	0.76850 0.27630 0.53090 -0.05800
H 	H 	0.71300 0.15670 0.42620 -0.00500
H 	H 	0.51180 0.21560 0.42550 -0.00300
H 	H 	0.52120 0.44560 0.44250 -0.06300
H 	H 	0.43290 0.43960 0.55970 -0.06400
H 	H 	0.65160 0.31440 0.60930 -0.00600
H 	H 	0.65760 0.38500 0.67990 0.00100
H 	H 	0.19900 0.46900 0.27690 -0.05800
H 	H 	0.48520 0.55550 0.20500 -0.00100
H 	H 	0.28670 0.55280 0.14480 -0.00800
H 	H 	0.38730 0.37820 0.30710 -0.00700
H 	H 	0.37600 0.30980 0.38000 -0.00700
C 	C 	0.77120 0.75330 0.50480 0.09400
C 	C 	0.79960 0.68810 0.44780 -0.01000
C 	C 	0.91150 0.72070 0.44740 -0.01000
C 	C 	0.01270 0.91990 0.41750 0.09200
C 	C 	0.01060 0.91730 0.58100 0.09500
C 	C 	0.89190 0.84870 0.60760 -0.00600
C 	C 	0.88860 0.88780 0.64670 -0.01800
C 	C 	0.25410 0.99070 0.25160 0.09500
C 	C 	0.09660 0.03750 0.21240 -0.02100
C 	C 	0.20760 0.03650 0.17940 -0.00500
C 	C 	0.08610 0.88380 0.34330 -0.01200
C 	C 	0.09170 0.84590 0.38380 -0.01200
C 	C 	0.72880 0.24670 0.00480 0.09300
C 	C 	0.70040 0.31190 0.94780 -0.01000
C 	C 	0.58850 0.27930 0.94740 -0.01000
C 	C 	0.48730 0.08010 0.91750 0.09300
C 	C 	0.48940 0.08270 0.08100 0.09800
C 	C 	0.60810 0.15130 0.10760 -0.00600
C 	C 	0.61140 0.11220 0.14670 -0.01900
C 	C 	0.24590 0.00930 0.75160 0.09500
C 	C 	0.40340 0.96250 0.71240 -0.02100
C 	C 	0.29240 0.96350 0.67940 -0.00500
C 	C 	0.41390 0.11620 0.84330 -0.01200
C 	C 	0.40830 0.15410 0.88380 -0.01100
C 	C 	0.22880 0.25330 0.99520 0.09200
C 	C 	0.20040 0.18810 0.05220 -0.01000
C 	C 	0.08850 0.22070 0.05260 -0.01000
C 	C 	0.98730 0.41990 0.08250 0.08900
C 	C 	0.98940 0.41730 0.91900 0.10000
C 	C 	0.10810 0.34870 0.89240 -0.00600
C 	C 	0.11140 0.38780 0.85330 -0.01900
C 	C 	0.74590 0.49070 0.24840 0.09400
C 	C 	0.90340 0.53750 0.28760 -0.02100
C 	C 	0.79240 0.53650 0.32060 -0.00500
C 	C 	0.91390 0.38380 0.15670 -0.01300
C 	C 	0.90830 0.34590 0.11620 -0.01200
C 	C 	0.27120 0.74670 0.49520 0.09400
C 	C 	0.29960 0.81190 0.55220 -0.01000
C 	C 	0.41150 0.77930 0.55260 -0.01000
C 	C 	0.51270 0.58010 0.58250 0.09300
C 	C 	0.51060 0.58270 0.41900 0.09800
C 	C 	0.39190 0.65130 0.39240 -0.00600
C 	C 	0.38860 0.61220 0.35330 -0.01900
C 	C 	0.75410 0.50930 0.74840 0.09500
C 	C 	0.59660 0.46250 0.78760 -0.02100
C 	C 	0.70760 0.46350 0.82060 -0.00500
C 	C 	0.58610 0.61620 0.65670 -0.01200
C 	C 	0.59170 0.65410 0.61620 -0.01100
C 	C 	0.22880 0.24670 0.49520 0.09400
C 	C 	0.20040 0.31190 0.55220 -0.01000
C 	C 	0.08850 0.27930 0.55260 -0.01000
C 	C 	0.98730 0.08010 0.58250 0.09200
C 	C 	0.98940 0.08270 0.41900 0.09500
C 	C 	0.10810 0.15130 0.39240 -0.00600
C 	C 	0.11140 0.11220 0.35330 -0.01800
C 	C 	0.74590 0.00930 0.74840 0.09500
C 	C 	0.90340 0.96250 0.78760 -0.02100
C 	C 	0.79240 0.96350 0.82060 -0.00500
C 	C 	0.91390 0.11620 0.65670 -0.01200
C 	C 	0.90830 0.15410 0.61620 -0.01200
C 	C 	0.27120 0.75330 0.99520 0.09300
C 	C 	0.29960 0.68810 0.05220 -0.01000
C 	C 	0.41150 0.72070 0.05260 -0.01000
C 	C 	0.51270 0.91990 0.08250 0.09300
C 	C 	0.51060 0.91730 0.91900 0.09800
C 	C 	0.39190 0.84870 0.89240 -0.00600
C 	C 	0.38860 0.88780 0.85330 -0.01900
C 	C 	0.75410 0.99070 0.24840 0.09500
C 	C 	0.59660 0.03750 0.28760 -0.02100
C 	C 	0.70760 0.03650 0.32060 -0.00500
C 	C 	0.58610 0.88380 0.15670 -0.01200
C 	C 	0.59170 0.84590 0.11620 -0.01100
C 	C 	0.77120 0.74670 0.00480 0.09200
C 	C 	0.79960 0.81190 0.94780 -0.01000
C 	C 	0.91150 0.77930 0.94740 -0.01000
C 	C 	0.01270 0.58010 0.91750 0.08900
C 	C 	0.01060 0.58270 0.08100 0.10000
C 	C 	0.89190 0.65130 0.10760 -0.00600
C 	C 	0.88860 0.61220 0.14670 -0.01900
C 	C 	0.25410 0.50930 0.75160 0.09400
C 	C 	0.09660 0.46250 0.71240 -0.02100
C 	C 	0.20760 0.46350 0.67940 -0.00500
C 	C 	0.08610 0.61620 0.84330 -0.01300
C 	C 	0.09170 0.65410 0.88380 -0.01200
C 	C 	0.72880 0.25330 0.50480 0.09400
C 	C 	0.70040 0.18810 0.44780 -0.01000
C 	C 	0.58850 0.22070 0.44740 -0.01000
C 	C 	0.48730 0.41990 0.41750 0.09300
C 	C 	0.48940 0.41730 0.58100 0.09800
C 	C 	0.60810 0.34870 0.60760 -0.00600
C 	C 	0.61140 0.38780 0.64670 -0.01900
C 	C 	0.24590 0.49070 0.25160 0.09500
C 	C 	0.40340 0.53750 0.21240 -0.02100
C 	C 	0.29240 0.53650 0.17940 -0.00500
C 	C 	0.41390 0.38380 0.34330 -0.01200
C 	C 	0.40830 0.34590 0.38380 -0.01100
N 	N 	0.89320 0.76190 0.48420 -0.29000
N 	N 	0.70910 0.70810 0.48440 -0.28900
N 	N 	0.04360 0.86820 0.43070 -0.29500
N 	N 	0.03510 0.93160 0.36430 -0.30000
N 	N 	0.96380 0.93250 0.63010 -0.28800
N 	N 	0.96910 0.86730 0.56520 -0.29600
N 	N 	0.12520 0.00720 0.25890 -0.28800
N 	N 	0.30910 0.00820 0.20460 -0.29200
N 	N 	0.60680 0.23810 0.98420 -0.29000
N 	N 	0.79090 0.29190 0.98440 -0.28800
N 	N 	0.45640 0.13180 0.93070 -0.29500
N 	N 	0.46490 0.06840 0.86430 -0.30000
N 	N 	0.53620 0.06750 0.13010 -0.28900
N 	N 	0.53090 0.13270 0.06520 -0.29800
N 	N 	0.37480 0.99280 0.75890 -0.28900
N 	N 	0.19090 0.99180 0.70460 -0.29200
N 	N 	0.10680 0.26190 0.01580 -0.28900
N 	N 	0.29090 0.20810 0.01560 -0.28800
N 	N 	0.95640 0.36820 0.06930 -0.29500
N 	N 	0.96490 0.43160 0.13570 -0.29900
N 	N 	0.03620 0.43250 0.86990 -0.29000
N 	N 	0.03090 0.36730 0.93480 -0.29800
N 	N 	0.87480 0.50720 0.24110 -0.28900
N 	N 	0.69090 0.50820 0.29540 -0.29200
N 	N 	0.39320 0.73810 0.51580 -0.29100
N 	N 	0.20910 0.79190 0.51560 -0.28900
N 	N 	0.54360 0.63180 0.56930 -0.29500
N 	N 	0.53510 0.56840 0.63570 -0.30000
N 	N 	0.46380 0.56750 0.36990 -0.28900
N 	N 	0.46910 0.63270 0.43480 -0.29800
N 	N 	0.62520 0.49280 0.74110 -0.28900
N 	N 	0.80910 0.49180 0.79540 -0.29200
N 	N 	0.10680 0.23810 0.51580 -0.29000
N 	N 	0.29090 0.29190 0.51560 -0.28900
N 	N 	0.95640 0.13180 0.56930 -0.29500
N 	N 	0.96490 0.06840 0.63570 -0.30000
N 	N 	0.03620 0.06750 0.36990 -0.28800
N 	N 	0.03090 0.13270 0.43480 -0.29600
N 	N 	0.87480 0.99280 0.74110 -0.28800
N 	N 	0.69090 0.99180 0.79540 -0.29200
N 	N 	0.39320 0.76190 0.01580 -0.29000
N 	N 	0.20910 0.70810 0.01560 -0.28800
N 	N 	0.54360 0.86820 0.06930 -0.29500
N 	N 	0.53510 0.93160 0.13570 -0.30000
N 	N 	0.46380 0.93250 0.86990 -0.28900
N 	N 	0.46910 0.86730 0.93480 -0.29800
N 	N 	0.62520 0.00720 0.24110 -0.28900
N 	N 	0.80910 0.00820 0.29540 -0.29200
N 	N 	0.89320 0.73810 0.98420 -0.28900
N 	N 	0.70910 0.79190 0.98440 -0.28800
N 	N 	0.04360 0.63180 0.93070 -0.29500
N 	N 	0.03510 0.56840 0.86430 -0.29900
N 	N 	0.96380 0.56750 0.13010 -0.29000
N 	N 	0.96910 0.63270 0.06520 -0.29800
N 	N 	0.12520 0.49280 0.75890 -0.28900
N 	N 	0.30910 0.49180 0.70460 -0.29200
N 	N 	0.60680 0.26190 0.48420 -0.29100
N 	N 	0.79090 0.20810 0.48440 -0.28900
N 	N 	0.45640 0.36820 0.43070 -0.29500
N 	N 	0.46490 0.43160 0.36430 -0.30000
N 	N 	0.53620 0.43250 0.63010 -0.28900
N 	N 	0.53090 0.36730 0.56520 -0.29800
N 	N 	0.37480 0.50720 0.25890 -0.28900
N 	N 	0.19090 0.50820 0.20460 -0.29200
