data_crystal

_cell_length_a 12.99700
_cell_length_b 13.83590
_cell_length_c 21.92420
_cell_angle_alpha 94.92580
_cell_angle_beta  90.00000
_cell_angle_gamma 90.00000

_symmetry_space_group_name_	'P 1'
_symmetry_space_group_name_H-M	'P 1'

loop_
_symmetry_equiv_pos_as_xyz
  x,y,z

loop_
_atom_site_label
_atom_site_type_symbol
_atom_site_fract_x
_atom_site_fract_y
_atom_site_fract_z
_atom_site_charge
Zn	Zn	0.27667 0.42679 0.16127 1.19700
Zn	Zn	0.60640 0.00522 0.22825 1.23600
Zn	Zn	0.77667 0.07321 0.33873 1.19700
Zn	Zn	0.10640 0.49478 0.27175 1.23700
Zn	Zn	0.72333 0.57321 0.83873 1.19700
Zn	Zn	0.39360 0.99478 0.77175 1.23600
Zn	Zn	0.22333 0.92679 0.66127 1.19600
Zn	Zn	0.89360 0.50522 0.72825 1.23600
H 	H 	0.34080 0.77170 0.25050 0.03800
H 	H 	0.36370 0.89430 0.09530 0.06500
H 	H 	0.16140 0.66640 0.11370 0.07100
H 	H 	0.99940 0.68520 0.94520 0.07600
H 	H 	0.07180 0.76740 0.77800 0.03400
H 	H 	0.24420 0.85960 0.92170 0.07100
H 	H 	0.17690 0.42700 0.02880 -0.02500
H 	H 	0.19930 0.50110 0.94280 0.13100
H 	H 	0.32730 0.58140 0.92480 -0.01400
H 	H 	0.50400 0.68630 0.98370 0.02000
H 	H 	0.59550 0.71570 0.06810 0.07800
H 	H 	0.62580 0.69980 0.17560 0.08100
H 	H 	0.58030 0.62930 0.26220 0.06000
H 	H 	0.44950 0.50960 0.25740 0.01800
H 	H 	0.84080 0.72830 0.24950 0.03800
H 	H 	0.86370 0.60570 0.40470 0.06400
H 	H 	0.66140 0.83360 0.38630 0.07100
H 	H 	0.49940 0.81480 0.55480 0.07600
H 	H 	0.57180 0.73260 0.72200 0.03500
H 	H 	0.74420 0.64040 0.57830 0.07200
H 	H 	0.67690 0.07300 0.47120 -0.02500
H 	H 	0.69930 0.99890 0.55720 0.13000
H 	H 	0.82730 0.91860 0.57520 -0.01300
H 	H 	0.00400 0.81370 0.51630 0.01800
H 	H 	0.09550 0.78430 0.43190 0.07800
H 	H 	0.12580 0.80020 0.32440 0.08000
H 	H 	0.08030 0.87070 0.23780 0.06200
H 	H 	0.94950 0.99040 0.24260 0.01800
H 	H 	0.65920 0.22830 0.74950 0.03800
H 	H 	0.63630 0.10570 0.90470 0.06500
H 	H 	0.83860 0.33360 0.88630 0.07100
H 	H 	0.00060 0.31480 0.05480 0.07600
H 	H 	0.92820 0.23260 0.22200 0.03400
H 	H 	0.75580 0.14040 0.07830 0.07100
H 	H 	0.82310 0.57300 0.97120 -0.02500
H 	H 	0.80070 0.49890 0.05720 0.13100
H 	H 	0.67270 0.41860 0.07520 -0.01400
H 	H 	0.49600 0.31370 0.01630 0.02000
H 	H 	0.40450 0.28430 0.93190 0.07800
H 	H 	0.37420 0.30020 0.82440 0.08100
H 	H 	0.41970 0.37070 0.73780 0.06000
H 	H 	0.55050 0.49040 0.74260 0.01800
H 	H 	0.15920 0.27170 0.75050 0.03800
H 	H 	0.13630 0.39430 0.59530 0.06400
H 	H 	0.33860 0.16640 0.61370 0.07100
H 	H 	0.50060 0.18520 0.44520 0.07600
H 	H 	0.42820 0.26740 0.27800 0.03500
H 	H 	0.25580 0.35960 0.42170 0.07200
H 	H 	0.32310 0.92700 0.52880 -0.02500
H 	H 	0.30070 0.00110 0.44280 0.13000
H 	H 	0.17270 0.08140 0.42480 -0.01300
H 	H 	0.99600 0.18630 0.48370 0.01800
H 	H 	0.90450 0.21570 0.56810 0.07800
H 	H 	0.87420 0.19980 0.67560 0.08000
H 	H 	0.91970 0.12930 0.76220 0.06200
H 	H 	0.05050 0.00960 0.75740 0.01800
C 	C 	0.21550 0.63290 0.22510 0.39700
C 	C 	0.24670 0.70440 0.18760 -0.14400
C 	C 	0.32010 0.77340 0.21000 0.07000
C 	C 	0.36350 0.84260 0.17760 -0.13000
C 	C 	0.33240 0.84990 0.11890 -0.01700
C 	C 	0.25060 0.78870 0.09370 0.06300
C 	C 	0.21040 0.71030 0.13020 -0.00600
C 	C 	0.12740 0.76640 0.94290 0.06900
C 	C 	0.04220 0.71720 0.91950 -0.03200
C 	C 	0.02050 0.71560 0.85790 -0.10800
C 	C 	0.08450 0.76990 0.81980 0.04000
C 	C 	0.16510 0.82640 0.84470 -0.09800
C 	C 	0.18870 0.82410 0.90500 -0.03300
C 	C 	0.44770 0.90120 0.20020 0.41300
C 	C 	0.22800 0.88250 0.80230 0.40700
C 	C 	0.93830 0.65450 0.83100 0.41800
C 	C 	0.23210 0.46960 0.02720 0.17200
C 	C 	0.24830 0.51200 0.97350 -0.25600
C 	C 	0.31760 0.56000 0.96350 0.14100
C 	C 	0.38850 0.58580 0.01230 -0.06600
C 	C 	0.48500 0.65540 0.01800 0.01300
C 	C 	0.54060 0.67230 0.06830 -0.11500
C 	C 	0.51980 0.62860 0.12110 0.06500
C 	C 	0.57280 0.65470 0.17470 -0.08200
C 	C 	0.54630 0.61240 0.22540 -0.04200
C 	C 	0.46390 0.54100 0.22250 0.03800
C 	C 	0.43200 0.56310 0.12200 -0.01100
C 	C 	0.36940 0.54250 0.06910 0.06000
C 	C 	0.71550 0.86710 0.27490 0.39600
C 	C 	0.74670 0.79560 0.31240 -0.14300
C 	C 	0.82010 0.72660 0.29000 0.07000
C 	C 	0.86350 0.65740 0.32240 -0.13100
C 	C 	0.83240 0.65010 0.38110 -0.01700
C 	C 	0.75060 0.71130 0.40630 0.06300
C 	C 	0.71040 0.78970 0.36980 -0.00600
C 	C 	0.62740 0.73360 0.55710 0.07100
C 	C 	0.54220 0.78280 0.58050 -0.03300
C 	C 	0.52050 0.78440 0.64210 -0.10700
C 	C 	0.58450 0.73010 0.68020 0.03900
C 	C 	0.66510 0.67360 0.65530 -0.09700
C 	C 	0.68870 0.67590 0.59500 -0.03300
C 	C 	0.94770 0.59880 0.29980 0.41300
C 	C 	0.72800 0.61750 0.69770 0.40700
C 	C 	0.43830 0.84550 0.66900 0.41800
C 	C 	0.73210 0.03040 0.47280 0.17000
C 	C 	0.74830 0.98800 0.52650 -0.25400
C 	C 	0.81760 0.94000 0.53650 0.14100
C 	C 	0.88850 0.91420 0.48770 -0.06600
C 	C 	0.98500 0.84460 0.48200 0.01700
C 	C 	0.04060 0.82770 0.43170 -0.11700
C 	C 	0.01980 0.87140 0.37890 0.06200
C 	C 	0.07280 0.84530 0.32530 -0.07800
C 	C 	0.04630 0.88760 0.27460 -0.04900
C 	C 	0.96390 0.95900 0.27750 0.04400
C 	C 	0.93200 0.93690 0.37800 -0.00800
C 	C 	0.86940 0.95750 0.43090 0.06200
C 	C 	0.78450 0.36710 0.77490 0.39700
C 	C 	0.75330 0.29560 0.81240 -0.14400
C 	C 	0.67990 0.22660 0.79000 0.07000
C 	C 	0.63650 0.15740 0.82240 -0.13000
C 	C 	0.66760 0.15010 0.88110 -0.01700
C 	C 	0.74940 0.21130 0.90630 0.06300
C 	C 	0.78960 0.28970 0.86980 -0.00600
C 	C 	0.87260 0.23360 0.05710 0.06900
C 	C 	0.95780 0.28280 0.08050 -0.03200
C 	C 	0.97950 0.28440 0.14210 -0.10800
C 	C 	0.91550 0.23010 0.18020 0.04000
C 	C 	0.83490 0.17360 0.15530 -0.09800
C 	C 	0.81130 0.17590 0.09500 -0.03300
C 	C 	0.55230 0.09880 0.79980 0.41300
C 	C 	0.77200 0.11750 0.19770 0.40700
C 	C 	0.06170 0.34550 0.16900 0.41800
C 	C 	0.76790 0.53040 0.97280 0.17200
C 	C 	0.75170 0.48800 0.02650 -0.25600
C 	C 	0.68240 0.44000 0.03650 0.14100
C 	C 	0.61150 0.41420 0.98770 -0.06600
C 	C 	0.51500 0.34460 0.98200 0.01300
C 	C 	0.45940 0.32770 0.93170 -0.11500
C 	C 	0.48020 0.37140 0.87890 0.06500
C 	C 	0.42720 0.34530 0.82530 -0.08200
C 	C 	0.45370 0.38760 0.77460 -0.04200
C 	C 	0.53610 0.45900 0.77750 0.03800
C 	C 	0.56800 0.43690 0.87800 -0.01100
C 	C 	0.63060 0.45750 0.93090 0.06000
C 	C 	0.28450 0.13290 0.72510 0.39600
C 	C 	0.25330 0.20440 0.68760 -0.14300
C 	C 	0.17990 0.27340 0.71000 0.07000
C 	C 	0.13650 0.34260 0.67760 -0.13100
C 	C 	0.16760 0.34990 0.61890 -0.01700
C 	C 	0.24940 0.28870 0.59370 0.06300
C 	C 	0.28960 0.21030 0.63020 -0.00600
C 	C 	0.37260 0.26640 0.44290 0.07100
C 	C 	0.45780 0.21720 0.41950 -0.03300
C 	C 	0.47950 0.21560 0.35790 -0.10700
C 	C 	0.41550 0.26990 0.31980 0.03900
C 	C 	0.33490 0.32640 0.34470 -0.09700
C 	C 	0.31130 0.32410 0.40500 -0.03300
C 	C 	0.05230 0.40120 0.70020 0.41300
C 	C 	0.27200 0.38250 0.30230 0.40700
C 	C 	0.56170 0.15450 0.33100 0.41800
C 	C 	0.26790 0.96960 0.52720 0.17000
C 	C 	0.25170 0.01200 0.47350 -0.25400
C 	C 	0.18240 0.06000 0.46350 0.14100
C 	C 	0.11150 0.08580 0.51230 -0.06600
C 	C 	0.01500 0.15540 0.51800 0.01700
C 	C 	0.95940 0.17230 0.56830 -0.11700
C 	C 	0.98020 0.12860 0.62110 0.06200
C 	C 	0.92720 0.15470 0.67470 -0.07800
C 	C 	0.95370 0.11240 0.72540 -0.04900
C 	C 	0.03610 0.04100 0.72250 0.04400
C 	C 	0.06800 0.06310 0.62200 -0.00800
C 	C 	0.13060 0.04250 0.56910 0.06200
N 	N 	0.28760 0.48480 0.07420 -0.26700
N 	N 	0.40930 0.51900 0.17330 -0.22600
N 	N 	0.22620 0.80240 0.02960 -0.07900
N 	N 	0.15350 0.75990 0.00860 -0.03900
N 	N 	0.78760 0.01520 0.42580 -0.26800
N 	N 	0.90930 0.98100 0.32670 -0.22600
N 	N 	0.72620 0.69760 0.47040 -0.07900
N 	N 	0.65350 0.74010 0.49140 -0.03900
N 	N 	0.71240 0.51520 0.92580 -0.26700
N 	N 	0.59070 0.48100 0.82670 -0.22600
N 	N 	0.77380 0.19760 0.97040 -0.07900
N 	N 	0.84650 0.24010 0.99140 -0.03900
N 	N 	0.21240 0.98480 0.57420 -0.26800
N 	N 	0.09070 0.01900 0.67330 -0.22600
N 	N 	0.27380 0.30240 0.52960 -0.07900
N 	N 	0.34650 0.25990 0.50860 -0.03900
O 	O 	0.18060 0.55350 0.20010 -0.54100
O 	O 	0.20930 0.64550 0.28030 -0.36600
O 	O 	0.47080 0.89620 0.25690 -0.34000
O 	O 	0.49130 0.95240 0.17190 -0.46500
O 	O 	0.30240 0.93010 0.82720 -0.45900
O 	O 	0.20150 0.88170 0.74860 -0.50600
O 	O 	0.86200 0.63870 0.86180 -0.48100
O 	O 	0.95200 0.62220 0.77580 -0.46800
O 	O 	0.07260 0.71090 0.03580 -0.13100
O 	O 	0.68060 0.94650 0.29990 -0.53900
O 	O 	0.70930 0.85450 0.21970 -0.36500
O 	O 	0.97080 0.60380 0.24310 -0.34000
O 	O 	0.99130 0.54760 0.32810 -0.46700
O 	O 	0.80240 0.56990 0.67280 -0.45800
O 	O 	0.70150 0.61830 0.75140 -0.50500
O 	O 	0.36200 0.86130 0.63820 -0.48100
O 	O 	0.45200 0.87780 0.72420 -0.46800
O 	O 	0.57260 0.78910 0.46420 -0.13100
O 	O 	0.81940 0.44650 0.79990 -0.54100
O 	O 	0.79070 0.35450 0.71970 -0.36600
O 	O 	0.52920 0.10380 0.74310 -0.34000
O 	O 	0.50870 0.04760 0.82810 -0.46500
O 	O 	0.69760 0.06990 0.17280 -0.45900
O 	O 	0.79850 0.11830 0.25140 -0.50600
O 	O 	0.13800 0.36130 0.13820 -0.48100
O 	O 	0.04800 0.37780 0.22420 -0.46800
O 	O 	0.92740 0.28910 0.96420 -0.13100
O 	O 	0.31940 0.05350 0.70010 -0.53900
O 	O 	0.29070 0.14550 0.78030 -0.36500
O 	O 	0.02920 0.39620 0.75690 -0.34000
O 	O 	0.00870 0.45240 0.67190 -0.46700
O 	O 	0.19760 0.43010 0.32720 -0.45800
O 	O 	0.29850 0.38170 0.24860 -0.50500
O 	O 	0.63800 0.13870 0.36180 -0.48100
O 	O 	0.54800 0.12220 0.27580 -0.46800
O 	O 	0.42740 0.21090 0.53580 -0.13100
