data_crystal

_cell_length_a 18.10100
_cell_length_b 18.10100
_cell_length_c 18.10100
_cell_angle_alpha 60.00360
_cell_angle_beta  60.00360
_cell_angle_gamma 60.00010

_symmetry_space_group_name_	'P 1'
_symmetry_space_group_name_H-M	'P 1'

loop_
_symmetry_equiv_pos_as_xyz
  x,y,z

loop_
_atom_site_label
_atom_site_type_symbol
_atom_site_fract_x
_atom_site_fract_y
_atom_site_fract_z
_atom_site_charge
Zn	Zn	0.11865 0.29385 0.29380 1.21600
Zn	Zn	0.70615 0.88135 0.70620 1.21600
Zn	Zn	0.88135 0.70615 0.70620 1.21600
Zn	Zn	0.29385 0.11865 0.29380 1.21600
Zn	Zn	0.29392 0.29392 0.11841 1.21900
Zn	Zn	0.29367 0.29367 0.29393 1.21300
Zn	Zn	0.70608 0.70608 0.88159 1.21900
Zn	Zn	0.70633 0.70633 0.70607 1.21300
H 	H 	0.15480 0.45200 0.93360 0.06000
H 	H 	0.93280 0.45040 0.15620 0.05900
H 	H 	0.93080 0.15620 0.44950 0.06000
H 	H 	0.54800 0.84520 0.06640 0.06000
H 	H 	0.54960 0.06720 0.84380 0.05900
H 	H 	0.84380 0.06920 0.55050 0.06000
H 	H 	0.84520 0.54800 0.06640 0.06000
H 	H 	0.06720 0.54960 0.84380 0.05900
H 	H 	0.06920 0.84380 0.55050 0.06000
H 	H 	0.45200 0.15480 0.93360 0.06000
H 	H 	0.45040 0.93280 0.15620 0.05900
H 	H 	0.15620 0.93080 0.44950 0.06000
C 	C 	0.12160 0.38280 0.11390 0.35600
C 	C 	0.05170 0.44790 0.05410 -0.03300
C 	C 	0.09080 0.47360 0.96020 -0.03200
C 	C 	0.96010 0.47210 0.09240 -0.02600
C 	C 	0.11800 0.38220 0.38200 0.31200
C 	C 	0.95710 0.09250 0.47340 -0.03200
C 	C 	0.61720 0.87840 0.88610 0.35600
C 	C 	0.55210 0.94830 0.94590 -0.03300
C 	C 	0.52640 0.90920 0.03980 -0.03200
C 	C 	0.52790 0.03990 0.90760 -0.02600
C 	C 	0.61780 0.88200 0.61800 0.31200
C 	C 	0.90750 0.04290 0.52660 -0.03200
C 	C 	0.87840 0.61720 0.88610 0.35600
C 	C 	0.94830 0.55210 0.94590 -0.03300
C 	C 	0.90920 0.52640 0.03980 -0.03200
C 	C 	0.03990 0.52790 0.90760 -0.02600
C 	C 	0.88200 0.61780 0.61800 0.31200
C 	C 	0.04290 0.90750 0.52660 -0.03200
C 	C 	0.38280 0.12160 0.11390 0.35600
C 	C 	0.44790 0.05170 0.05410 -0.03300
C 	C 	0.47360 0.09080 0.96020 -0.03200
C 	C 	0.47210 0.96010 0.09240 -0.02600
C 	C 	0.38220 0.11800 0.38200 0.31200
C 	C 	0.09250 0.95710 0.47340 -0.03200
C 	C 	0.38310 0.38310 0.11400 0.31600
C 	C 	0.11690 0.11690 0.38110 0.32100
C 	C 	0.05150 0.05150 0.45050 -0.02400
C 	C 	0.61690 0.61690 0.88600 0.31600
C 	C 	0.88310 0.88310 0.61890 0.32100
C 	C 	0.94850 0.94850 0.54950 -0.02400
O 	O 	0.19980 0.36640 0.06970 -0.52700
O 	O 	0.06940 0.36720 0.19730 -0.49400
O 	O 	0.19960 0.36660 0.36560 -0.48800
O 	O 	0.06800 0.36680 0.36570 -0.48800
O 	O 	0.06830 0.19910 0.36730 -0.49300
O 	O 	0.63360 0.80020 0.93030 -0.52700
O 	O 	0.63280 0.93060 0.80270 -0.49400
O 	O 	0.63340 0.80040 0.63440 -0.48800
O 	O 	0.63320 0.93200 0.63430 -0.48800
O 	O 	0.80090 0.93170 0.63270 -0.49300
O 	O 	0.80020 0.63360 0.93030 -0.52700
O 	O 	0.93060 0.63280 0.80270 -0.49400
O 	O 	0.80040 0.63340 0.63440 -0.48800
O 	O 	0.93200 0.63320 0.63430 -0.48800
O 	O 	0.93170 0.80090 0.63270 -0.49300
O 	O 	0.36640 0.19980 0.06970 -0.52700
O 	O 	0.36720 0.06940 0.19730 -0.49400
O 	O 	0.36660 0.19960 0.36560 -0.48800
O 	O 	0.36680 0.06800 0.36570 -0.48800
O 	O 	0.19910 0.06830 0.36730 -0.49300
O 	O 	0.24870 0.24870 0.25120 -0.97000
O 	O 	0.36630 0.36630 0.06820 -0.49700
O 	O 	0.36620 0.36620 0.19910 -0.47800
O 	O 	0.75130 0.75130 0.74880 -0.97000
O 	O 	0.63370 0.63370 0.93180 -0.49700
O 	O 	0.63380 0.63380 0.80090 -0.47800
