data_crystal

_cell_length_a 18.25190
_cell_length_b 18.25190
_cell_length_c 18.25200
_cell_angle_alpha 60.00370
_cell_angle_beta  60.00370
_cell_angle_gamma 60.00050

_symmetry_space_group_name_	'P 1'
_symmetry_space_group_name_H-M	'P 1'

loop_
_symmetry_equiv_pos_as_xyz
  x,y,z

loop_
_atom_site_label
_atom_site_type_symbol
_atom_site_fract_x
_atom_site_fract_y
_atom_site_fract_z
_atom_site_charge
Zn	Zn	0.88088 0.70652 0.20631 1.21000
Zn	Zn	0.29348 0.11912 0.79369 1.21000
Zn	Zn	0.11912 0.29348 0.79369 1.21000
Zn	Zn	0.70652 0.88088 0.20631 1.21000
Zn	Zn	0.70633 0.70633 0.38080 1.20900
Zn	Zn	0.70645 0.70645 0.20610 1.20800
Zn	Zn	0.29367 0.29367 0.61920 1.20900
Zn	Zn	0.29355 0.29355 0.79390 1.20800
H 	H 	0.54380 0.06380 0.34770 0.05300
H 	H 	0.54070 0.84770 0.56160 0.05300
H 	H 	0.54740 0.06180 0.04520 0.05300
H 	H 	0.54690 0.84650 0.03990 0.05000
H 	H 	0.06290 0.84710 0.04700 0.05300
H 	H 	0.93620 0.45620 0.65230 0.05200
H 	H 	0.15230 0.45930 0.43840 0.05200
H 	H 	0.93820 0.45260 0.95480 0.05200
H 	H 	0.15350 0.45310 0.96010 0.04900
H 	H 	0.15290 0.93710 0.95300 0.05300
H 	H 	0.45620 0.93620 0.65230 0.05200
H 	H 	0.45930 0.15230 0.43840 0.05200
H 	H 	0.45260 0.93820 0.95480 0.05200
H 	H 	0.45310 0.15350 0.96010 0.04900
H 	H 	0.93710 0.15290 0.95300 0.05300
H 	H 	0.06380 0.54380 0.34770 0.05200
H 	H 	0.84770 0.54070 0.56160 0.05200
H 	H 	0.06180 0.54740 0.04520 0.05200
H 	H 	0.84650 0.54690 0.03990 0.04900
H 	H 	0.84710 0.06290 0.04700 0.05300
H 	H 	0.54510 0.54510 0.34700 0.04700
H 	H 	0.54240 0.54240 0.56550 0.04600
H 	H 	0.45490 0.45490 0.65300 0.04700
H 	H 	0.45760 0.45760 0.43450 0.04600
C 	C 	0.61180 0.89060 0.38640 0.34800
C 	C 	0.55300 0.94760 0.44680 -0.06900
C 	C 	0.52690 0.03730 0.41000 -0.02100
C 	C 	0.52510 0.90990 0.53600 -0.02000
C 	C 	0.61220 0.88940 0.10980 0.35700
C 	C 	0.55630 0.94510 0.05290 -0.08400
C 	C 	0.52850 0.03610 0.02770 -0.01900
C 	C 	0.52810 0.90850 0.02430 -0.01500
C 	C 	0.03660 0.90920 0.02750 -0.02400
C 	C 	0.10940 0.38820 0.61360 0.34800
C 	C 	0.05240 0.44700 0.55320 -0.06900
C 	C 	0.96270 0.47310 0.59000 -0.02100
C 	C 	0.09010 0.47490 0.46400 -0.02000
C 	C 	0.11060 0.38780 0.89020 0.35700
C 	C 	0.05490 0.44370 0.94710 -0.08400
C 	C 	0.96390 0.47150 0.97230 -0.01900
C 	C 	0.09150 0.47190 0.97570 -0.01500
C 	C 	0.09080 0.96340 0.97250 -0.02400
C 	C 	0.38820 0.10940 0.61360 0.34800
C 	C 	0.44700 0.05240 0.55320 -0.06900
C 	C 	0.47310 0.96270 0.59000 -0.02100
C 	C 	0.47490 0.09010 0.46400 -0.02000
C 	C 	0.38780 0.11060 0.89020 0.35700
C 	C 	0.44370 0.05490 0.94710 -0.08400
C 	C 	0.47150 0.96390 0.97230 -0.01900
C 	C 	0.47190 0.09150 0.97570 -0.01500
C 	C 	0.96340 0.09080 0.97250 -0.02400
C 	C 	0.89060 0.61180 0.38640 0.34800
C 	C 	0.94760 0.55300 0.44680 -0.06900
C 	C 	0.03730 0.52690 0.41000 -0.02100
C 	C 	0.90990 0.52510 0.53600 -0.02000
C 	C 	0.88940 0.61220 0.10980 0.35700
C 	C 	0.94510 0.55630 0.05290 -0.08400
C 	C 	0.03610 0.52850 0.02770 -0.01900
C 	C 	0.90850 0.52810 0.02430 -0.01500
C 	C 	0.90920 0.03660 0.02750 -0.02400
C 	C 	0.61010 0.61010 0.39300 0.40300
C 	C 	0.55400 0.55400 0.44600 -0.10700
C 	C 	0.52740 0.52740 0.40900 -0.00600
C 	C 	0.52500 0.52500 0.53800 -0.00900
C 	C 	0.88650 0.88650 0.11500 0.36400
C 	C 	0.94670 0.94670 0.05300 -0.06300
C 	C 	0.38990 0.38990 0.60700 0.40300
C 	C 	0.44600 0.44600 0.55400 -0.10700
C 	C 	0.47260 0.47260 0.59100 -0.00600
C 	C 	0.47500 0.47500 0.46200 -0.00900
C 	C 	0.11350 0.11350 0.88500 0.36400
C 	C 	0.05330 0.05330 0.94700 -0.06300
O 	O 	0.63190 0.80490 0.42990 -0.48600
O 	O 	0.63430 0.93110 0.30370 -0.49600
O 	O 	0.63160 0.80380 0.13510 -0.49500
O 	O 	0.63380 0.92960 0.13230 -0.49600
O 	O 	0.92890 0.80350 0.13460 -0.50600
O 	O 	0.19510 0.36810 0.57010 -0.48600
O 	O 	0.06890 0.36570 0.69630 -0.49600
O 	O 	0.19620 0.36840 0.86490 -0.49500
O 	O 	0.07040 0.36620 0.86770 -0.49600
O 	O 	0.19650 0.07110 0.86540 -0.50600
O 	O 	0.36810 0.19510 0.57010 -0.48600
O 	O 	0.36570 0.06890 0.69630 -0.49600
O 	O 	0.36840 0.19620 0.86490 -0.49500
O 	O 	0.36620 0.07040 0.86770 -0.49600
O 	O 	0.07110 0.19650 0.86540 -0.50600
O 	O 	0.80490 0.63190 0.42990 -0.48600
O 	O 	0.93110 0.63430 0.30370 -0.49600
O 	O 	0.80380 0.63160 0.13510 -0.49500
O 	O 	0.92960 0.63380 0.13230 -0.49600
O 	O 	0.80350 0.92890 0.13460 -0.50600
O 	O 	0.74990 0.74990 0.25020 -0.96300
O 	O 	0.63330 0.63330 0.42890 -0.52000
O 	O 	0.63170 0.63170 0.30840 -0.49500
O 	O 	0.25010 0.25010 0.74980 -0.96300
O 	O 	0.36670 0.36670 0.57110 -0.52000
O 	O 	0.36830 0.36830 0.69160 -0.49500
