data_crystal

_cell_length_a 12.95910
_cell_length_b 13.79710
_cell_length_c 16.81530
_cell_angle_alpha 90.00000
_cell_angle_beta  90.00000
_cell_angle_gamma 90.00000

_symmetry_space_group_name_	'P 1'
_symmetry_space_group_name_H-M	'P 1'

loop_
_symmetry_equiv_pos_as_xyz
  x,y,z

loop_
_atom_site_label
_atom_site_type_symbol
_atom_site_fract_x
_atom_site_fract_y
_atom_site_fract_z
_atom_site_charge
Zn	Zn	0.42665 0.97754 0.40392 1.18300
Zn	Zn	0.47660 0.90714 0.07610 1.18500
Zn	Zn	0.57335 0.52246 0.90392 1.18400
Zn	Zn	0.52340 0.59286 0.57610 1.18500
Zn	Zn	0.92665 0.02246 0.09608 1.18200
Zn	Zn	0.97660 0.09286 0.42390 1.18200
Zn	Zn	0.07335 0.47754 0.59608 1.18400
Zn	Zn	0.02340 0.40714 0.92390 1.18400
Zn	Zn	0.57335 0.02246 0.59608 1.18300
Zn	Zn	0.52340 0.09286 0.92390 1.18500
Zn	Zn	0.42665 0.47754 0.09608 1.18400
Zn	Zn	0.47660 0.40714 0.42390 1.18500
Zn	Zn	0.07335 0.97754 0.90392 1.18200
Zn	Zn	0.02340 0.90714 0.57610 1.18200
Zn	Zn	0.92665 0.52246 0.40392 1.18400
Zn	Zn	0.97660 0.59286 0.07610 1.18400
H 	H 	0.25180 0.86340 0.50160 -0.04700
H 	H 	0.44660 0.19500 0.35290 -0.01000
H 	H 	0.17250 0.16930 0.35630 0.13600
H 	H 	0.28170 0.13250 0.34100 0.14400
H 	H 	0.58710 0.23780 0.62530 0.14800
H 	H 	0.56420 0.33340 0.58350 0.13200
H 	H 	0.74820 0.63660 0.00160 -0.05100
H 	H 	0.55340 0.30500 0.85290 -0.01000
H 	H 	0.82750 0.33070 0.85630 0.13500
H 	H 	0.71830 0.36750 0.84100 0.14300
H 	H 	0.41290 0.26220 0.12530 0.14800
H 	H 	0.43580 0.16660 0.08350 0.13300
H 	H 	0.75180 0.13660 0.99840 -0.04300
H 	H 	0.94660 0.80500 0.14710 -0.01000
H 	H 	0.67250 0.83070 0.14370 0.13500
H 	H 	0.78170 0.86750 0.15900 0.14400
H 	H 	0.08710 0.76220 0.87470 0.14700
H 	H 	0.06420 0.66660 0.91650 0.13000
H 	H 	0.24820 0.36340 0.49840 -0.04600
H 	H 	0.05340 0.69500 0.64710 -0.01200
H 	H 	0.32750 0.66930 0.64370 0.13500
H 	H 	0.21830 0.63250 0.65900 0.14300
H 	H 	0.91290 0.73780 0.37470 0.14800
H 	H 	0.93580 0.83340 0.41650 0.13400
H 	H 	0.74820 0.13660 0.49840 -0.04700
H 	H 	0.55340 0.80500 0.64710 -0.01000
H 	H 	0.82750 0.83070 0.64370 0.13600
H 	H 	0.71830 0.86750 0.65900 0.14400
H 	H 	0.41290 0.76220 0.37470 0.14800
H 	H 	0.43580 0.66660 0.41650 0.13200
H 	H 	0.25180 0.36340 0.99840 -0.05100
H 	H 	0.44660 0.69500 0.14710 -0.01000
H 	H 	0.17250 0.66930 0.14370 0.13500
H 	H 	0.28170 0.63250 0.15900 0.14300
H 	H 	0.58710 0.73780 0.87470 0.14800
H 	H 	0.56420 0.83340 0.91650 0.13300
H 	H 	0.24820 0.86340 0.00160 -0.04300
H 	H 	0.05340 0.19500 0.85290 -0.01000
H 	H 	0.32750 0.16930 0.85630 0.13500
H 	H 	0.21830 0.13250 0.84100 0.14400
H 	H 	0.91290 0.23780 0.12530 0.14700
H 	H 	0.93580 0.33340 0.08350 0.13000
H 	H 	0.75180 0.63660 0.50160 -0.04600
H 	H 	0.94660 0.30500 0.35290 -0.01200
H 	H 	0.67250 0.33070 0.35630 0.13500
H 	H 	0.78170 0.36750 0.34100 0.14300
H 	H 	0.08710 0.26220 0.62530 0.14800
H 	H 	0.06420 0.16660 0.58350 0.13400
C 	C 	0.42350 0.00600 0.22305 0.20300
C 	C 	0.47240 0.90910 0.24642 0.23800
C 	C 	0.20230 0.04750 0.41099 0.19100
C 	C 	0.22210 0.91950 0.47818 0.09800
C 	C 	0.52690 0.22040 0.51992 0.18900
C 	C 	0.47160 0.18800 0.40569 0.09100
C 	C 	0.57650 0.49400 0.72305 0.20200
C 	C 	0.52760 0.59090 0.74642 0.24000
C 	C 	0.79770 0.45250 0.91099 0.18700
C 	C 	0.77790 0.58050 0.97818 0.10600
C 	C 	0.47310 0.27960 0.01992 0.19000
C 	C 	0.52840 0.31200 0.90569 0.09100
C 	C 	0.92350 0.99400 0.27695 0.21400
C 	C 	0.97240 0.09090 0.25358 0.21800
C 	C 	0.70230 0.95250 0.08901 0.19000
C 	C 	0.72210 0.08050 0.02182 0.09400
C 	C 	0.02690 0.77960 0.98008 0.18300
C 	C 	0.97160 0.81200 0.09431 0.09200
C 	C 	0.07650 0.50600 0.77695 0.20200
C 	C 	0.02760 0.40910 0.75358 0.23800
C 	C 	0.29770 0.54750 0.58901 0.18600
C 	C 	0.27790 0.41950 0.52182 0.09900
C 	C 	0.97310 0.72040 0.48008 0.19400
C 	C 	0.02840 0.68800 0.59431 0.09000
C 	C 	0.57650 0.99400 0.77695 0.20300
C 	C 	0.52760 0.09090 0.75358 0.23800
C 	C 	0.79770 0.95250 0.58901 0.19100
C 	C 	0.77790 0.08050 0.52182 0.09800
C 	C 	0.47310 0.77960 0.48008 0.18900
C 	C 	0.52840 0.81200 0.59431 0.09100
C 	C 	0.42350 0.50600 0.27695 0.20200
C 	C 	0.47240 0.40910 0.25358 0.24000
C 	C 	0.20230 0.54750 0.08901 0.18700
C 	C 	0.22210 0.41950 0.02182 0.10600
C 	C 	0.52690 0.72040 0.98008 0.19000
C 	C 	0.47160 0.68800 0.09431 0.09100
C 	C 	0.07650 0.00600 0.72305 0.21400
C 	C 	0.02760 0.90910 0.74642 0.21800
C 	C 	0.29770 0.04750 0.91099 0.19000
C 	C 	0.27790 0.91950 0.97818 0.09400
C 	C 	0.97310 0.22040 0.01992 0.18300
C 	C 	0.02840 0.18800 0.90569 0.09200
C 	C 	0.92350 0.49400 0.22305 0.20200
C 	C 	0.97240 0.59090 0.24642 0.23800
C 	C 	0.70230 0.45250 0.41099 0.18600
C 	C 	0.72210 0.58050 0.47818 0.09900
C 	C 	0.02690 0.27960 0.51992 0.19400
C 	C 	0.97160 0.31200 0.40569 0.09000
N 	N 	0.27370 0.97853 0.42800 -0.30600
N 	N 	0.12710 0.94717 0.49140 -0.26000
N 	N 	0.11360 0.03140 0.44764 -0.26900
N 	N 	0.22100 0.12560 0.36390 -0.32400
N 	N 	0.52330 0.12399 0.51537 -0.26500
N 	N 	0.48670 0.10408 0.43960 -0.26400
N 	N 	0.49480 0.26318 0.45276 -0.29300
N 	N 	0.56370 0.26960 0.58371 -0.32000
N 	N 	0.72630 0.52147 0.92800 -0.30400
N 	N 	0.87290 0.55283 0.99140 -0.25500
N 	N 	0.88640 0.46860 0.94764 -0.27100
N 	N 	0.77900 0.37440 0.86390 -0.32300
N 	N 	0.47670 0.37601 0.01537 -0.26500
N 	N 	0.51330 0.39592 0.93960 -0.26400
N 	N 	0.50520 0.23682 0.95276 -0.29300
N 	N 	0.43630 0.23040 0.08371 -0.32000
N 	N 	0.77370 0.02147 0.07200 -0.30500
N 	N 	0.62710 0.05283 0.00860 -0.25600
N 	N 	0.61360 0.96860 0.05236 -0.27300
N 	N 	0.72100 0.87440 0.13610 -0.32400
N 	N 	0.02330 0.87601 0.98463 -0.26800
N 	N 	0.98670 0.89592 0.06040 -0.26000
N 	N 	0.99480 0.73682 0.04724 -0.29100
N 	N 	0.06370 0.73040 0.91629 -0.31900
N 	N 	0.22630 0.47853 0.57200 -0.30300
N 	N 	0.37290 0.44717 0.50860 -0.25600
N 	N 	0.38640 0.53140 0.55236 -0.27300
N 	N 	0.27900 0.62560 0.63610 -0.32300
N 	N 	0.97670 0.62399 0.48463 -0.26500
N 	N 	0.01330 0.60408 0.56040 -0.26500
N 	N 	0.00520 0.76318 0.54724 -0.29700
N 	N 	0.93630 0.76960 0.41629 -0.32100
N 	N 	0.72630 0.02147 0.57200 -0.30600
N 	N 	0.87290 0.05283 0.50860 -0.26000
N 	N 	0.88640 0.96860 0.55236 -0.26900
N 	N 	0.77900 0.87440 0.63610 -0.32400
N 	N 	0.47670 0.87601 0.48463 -0.26500
N 	N 	0.51330 0.89592 0.56040 -0.26400
N 	N 	0.50520 0.73682 0.54724 -0.29300
N 	N 	0.43630 0.73040 0.41629 -0.32000
N 	N 	0.27370 0.47853 0.07200 -0.30400
N 	N 	0.12710 0.44717 0.00860 -0.25500
N 	N 	0.11360 0.53140 0.05236 -0.27100
N 	N 	0.22100 0.62560 0.13610 -0.32300
N 	N 	0.52330 0.62399 0.98463 -0.26500
N 	N 	0.48670 0.60408 0.06040 -0.26400
N 	N 	0.49480 0.76318 0.04724 -0.29300
N 	N 	0.56370 0.76960 0.91629 -0.32000
N 	N 	0.22630 0.97853 0.92800 -0.30500
N 	N 	0.37290 0.94717 0.99140 -0.25600
N 	N 	0.38640 0.03140 0.94764 -0.27300
N 	N 	0.27900 0.12560 0.86390 -0.32400
N 	N 	0.97670 0.12399 0.01537 -0.26800
N 	N 	0.01330 0.10408 0.93960 -0.26000
N 	N 	0.00520 0.26318 0.95276 -0.29100
N 	N 	0.93630 0.26960 0.08371 -0.31900
N 	N 	0.77370 0.52147 0.42800 -0.30300
N 	N 	0.62710 0.55283 0.49140 -0.25600
N 	N 	0.61360 0.46860 0.44764 -0.27300
N 	N 	0.72100 0.37440 0.36390 -0.32300
N 	N 	0.02330 0.37601 0.51537 -0.26500
N 	N 	0.98670 0.39592 0.43960 -0.26500
N 	N 	0.99480 0.23682 0.45276 -0.29700
N 	N 	0.06370 0.23040 0.58371 -0.32100
O 	O 	0.39470 0.05825 0.27924 -0.34600
O 	O 	0.48250 0.89053 0.31869 -0.43400
O 	O 	0.41720 0.02290 0.14989 -0.39500
O 	O 	0.50250 0.85484 0.19171 -0.40300
O 	O 	0.60530 0.44175 0.77924 -0.34700
O 	O 	0.51750 0.60947 0.81869 -0.43400
O 	O 	0.58280 0.47710 0.64989 -0.39600
O 	O 	0.49750 0.64516 0.69171 -0.40400
O 	O 	0.89470 0.94175 0.22076 -0.34800
O 	O 	0.98250 0.10947 0.18131 -0.43300
O 	O 	0.91720 0.97710 0.35011 -0.39600
O 	O 	0.00250 0.14516 0.30829 -0.38800
O 	O 	0.10530 0.55825 0.72076 -0.34800
O 	O 	0.01750 0.39053 0.68131 -0.43400
O 	O 	0.08280 0.52290 0.85011 -0.39800
O 	O 	0.99750 0.35484 0.80829 -0.40200
O 	O 	0.60530 0.94175 0.72076 -0.34600
O 	O 	0.51750 0.10947 0.68131 -0.43400
O 	O 	0.58280 0.97710 0.85011 -0.39500
O 	O 	0.49750 0.14516 0.80829 -0.40300
O 	O 	0.39470 0.55825 0.22076 -0.34700
O 	O 	0.48250 0.39053 0.18131 -0.43400
O 	O 	0.41720 0.52290 0.35011 -0.39600
O 	O 	0.50250 0.35484 0.30829 -0.40400
O 	O 	0.10530 0.05825 0.77924 -0.34800
O 	O 	0.01750 0.89053 0.81869 -0.43300
O 	O 	0.08280 0.02290 0.64989 -0.39600
O 	O 	0.99750 0.85484 0.69171 -0.38800
O 	O 	0.89470 0.44175 0.27924 -0.34800
O 	O 	0.98250 0.60947 0.31869 -0.43400
O 	O 	0.91720 0.47710 0.14989 -0.39800
O 	O 	0.00250 0.64516 0.19171 -0.40200
