data_crystal

_cell_length_a 12.96390
_cell_length_b 13.80340
_cell_length_c 16.83180
_cell_angle_alpha 90.00000
_cell_angle_beta  90.00000
_cell_angle_gamma 90.00000

_symmetry_space_group_name_	'P 1'
_symmetry_space_group_name_H-M	'P 1'

loop_
_symmetry_equiv_pos_as_xyz
  x,y,z

loop_
_atom_site_label
_atom_site_type_symbol
_atom_site_fract_x
_atom_site_fract_y
_atom_site_fract_z
_atom_site_charge
Zn	Zn	0.97614 0.40741 0.57603 1.18500
Zn	Zn	0.92641 0.47801 0.90385 1.18300
Zn	Zn	0.02386 0.09259 0.07603 1.18100
Zn	Zn	0.07359 0.02199 0.40385 1.18200
Zn	Zn	0.47614 0.59259 0.92397 1.18600
Zn	Zn	0.42641 0.52199 0.59615 1.18400
Zn	Zn	0.52386 0.90741 0.42397 1.18600
Zn	Zn	0.57359 0.97801 0.09615 1.18400
Zn	Zn	0.02386 0.59259 0.42397 1.18600
Zn	Zn	0.07359 0.52199 0.09615 1.18400
Zn	Zn	0.97614 0.90741 0.92397 1.18100
Zn	Zn	0.92641 0.97801 0.59615 1.18200
Zn	Zn	0.52386 0.40741 0.07603 1.18600
Zn	Zn	0.57359 0.47801 0.40385 1.18400
Zn	Zn	0.47614 0.09259 0.57603 1.18600
Zn	Zn	0.42641 0.02199 0.90385 1.18400
H 	H 	0.95000 0.19200 0.64460 -0.01200
H 	H 	0.75100 0.35400 0.50340 -0.03200
H 	H 	0.06100 0.24300 0.36900 0.15300
H 	H 	0.05800 0.33000 0.41050 0.14100
H 	H 	0.72600 0.61800 0.32400 0.11500
H 	H 	0.83800 0.66000 0.34600 0.10600
H 	H 	0.05000 0.30800 0.14460 -0.01400
H 	H 	0.24900 0.14600 0.00340 -0.03700
H 	H 	0.93900 0.25700 0.86900 0.15500
H 	H 	0.94200 0.17000 0.91050 0.14300
H 	H 	0.27400 0.88200 0.82400 0.11600
H 	H 	0.16200 0.84000 0.84600 0.10900
H 	H 	0.45000 0.80800 0.85540 -0.01200
H 	H 	0.25100 0.64600 0.99660 -0.02900
H 	H 	0.56100 0.75700 0.13100 0.15500
H 	H 	0.55800 0.67000 0.08950 0.14300
H 	H 	0.22600 0.38200 0.17600 0.11500
H 	H 	0.33800 0.34000 0.15400 0.10600
H 	H 	0.55000 0.69200 0.35540 -0.01200
H 	H 	0.74900 0.85400 0.49660 -0.03300
H 	H 	0.43900 0.74300 0.63100 0.15500
H 	H 	0.44200 0.83000 0.58950 0.14300
H 	H 	0.77400 0.11800 0.67600 0.11600
H 	H 	0.66200 0.16000 0.65400 0.10700
H 	H 	0.05000 0.80800 0.35540 -0.01200
H 	H 	0.24900 0.64600 0.49660 -0.03200
H 	H 	0.93900 0.75700 0.63100 0.15300
H 	H 	0.94200 0.67000 0.58950 0.14100
H 	H 	0.27400 0.38200 0.67600 0.11500
H 	H 	0.16200 0.34000 0.65400 0.10600
H 	H 	0.95000 0.69200 0.85540 -0.01400
H 	H 	0.75100 0.85400 0.99660 -0.03700
H 	H 	0.06100 0.74300 0.13100 0.15500
H 	H 	0.05800 0.83000 0.08950 0.14300
H 	H 	0.72600 0.11800 0.17600 0.11600
H 	H 	0.83800 0.16000 0.15400 0.10900
H 	H 	0.55000 0.19200 0.14460 -0.01200
H 	H 	0.74900 0.35400 0.00340 -0.02900
H 	H 	0.43900 0.24300 0.86900 0.15500
H 	H 	0.44200 0.33000 0.91050 0.14300
H 	H 	0.77400 0.61800 0.82400 0.11500
H 	H 	0.66200 0.66000 0.84600 0.10600
H 	H 	0.45000 0.30800 0.64460 -0.01200
H 	H 	0.25100 0.14600 0.50340 -0.03300
H 	H 	0.56100 0.25700 0.36900 0.15500
H 	H 	0.55800 0.17000 0.41050 0.14300
H 	H 	0.22600 0.88200 0.32400 0.11600
H 	H 	0.33800 0.84000 0.34600 0.10700
C 	C 	0.97220 0.40972 0.74606 0.24100
C 	C 	0.92270 0.50699 0.72252 0.20500
C 	C 	0.02790 0.22036 0.47993 0.18700
C 	C 	0.97110 0.18820 0.59413 0.10000
C 	C 	0.79790 0.54791 0.41063 0.17200
C 	C 	0.77790 0.41895 0.47697 0.08400
C 	C 	0.02780 0.09028 0.24606 0.21700
C 	C 	0.07730 0.99301 0.22252 0.21900
C 	C 	0.97210 0.27964 0.97993 0.19500
C 	C 	0.02890 0.31180 0.09413 0.09700
C 	C 	0.20210 0.95209 0.91063 0.17600
C 	C 	0.22210 0.08105 0.97697 0.08800
C 	C 	0.47220 0.59028 0.75394 0.24100
C 	C 	0.42270 0.49301 0.77748 0.20500
C 	C 	0.52790 0.77964 0.02007 0.19200
C 	C 	0.47110 0.81180 0.90587 0.09900
C 	C 	0.29790 0.45209 0.08937 0.17100
C 	C 	0.27790 0.58105 0.02303 0.08000
C 	C 	0.52780 0.90972 0.25394 0.24000
C 	C 	0.57730 0.00699 0.27748 0.20600
C 	C 	0.47210 0.72036 0.52007 0.19200
C 	C 	0.52890 0.68820 0.40587 0.09900
C 	C 	0.70210 0.04791 0.58937 0.17600
C 	C 	0.72210 0.91895 0.52303 0.08300
C 	C 	0.02780 0.59028 0.25394 0.24100
C 	C 	0.07730 0.49301 0.27748 0.20500
C 	C 	0.97210 0.77964 0.52007 0.18700
C 	C 	0.02890 0.81180 0.40587 0.10000
C 	C 	0.20210 0.45209 0.58937 0.17200
C 	C 	0.22210 0.58105 0.52303 0.08400
C 	C 	0.97220 0.90972 0.75394 0.21700
C 	C 	0.92270 0.00699 0.77748 0.21900
C 	C 	0.02790 0.72036 0.02007 0.19500
C 	C 	0.97110 0.68820 0.90587 0.09700
C 	C 	0.79790 0.04791 0.08937 0.17600
C 	C 	0.77790 0.91895 0.02303 0.08800
C 	C 	0.52780 0.40972 0.24606 0.24100
C 	C 	0.57730 0.50699 0.22252 0.20500
C 	C 	0.47210 0.22036 0.97993 0.19200
C 	C 	0.52890 0.18820 0.09413 0.09900
C 	C 	0.70210 0.54791 0.91063 0.17100
C 	C 	0.72210 0.41895 0.97697 0.08000
C 	C 	0.47220 0.09028 0.74606 0.24000
C 	C 	0.42270 0.99301 0.72252 0.20600
C 	C 	0.52790 0.27964 0.47993 0.19200
C 	C 	0.47110 0.31180 0.59413 0.09900
C 	C 	0.29790 0.95209 0.41063 0.17600
C 	C 	0.27790 0.08105 0.47697 0.08300
N 	N 	0.99502 0.26341 0.54715 -0.28800
N 	N 	0.98706 0.10405 0.56052 -0.25900
N 	N 	0.02496 0.12395 0.48503 -0.26700
N 	N 	0.06650 0.26911 0.41664 -0.33200
N 	N 	0.87291 0.44663 0.49093 -0.25300
N 	N 	0.88679 0.53165 0.44774 -0.27000
N 	N 	0.72658 0.47859 0.42713 -0.29600
N 	N 	0.77900 0.62660 0.36440 -0.27000
N 	N 	0.00498 0.23659 0.04715 -0.29600
N 	N 	0.01294 0.39595 0.06052 -0.26600
N 	N 	0.97504 0.37605 0.98503 -0.26400
N 	N 	0.93350 0.23089 0.91664 -0.33400
N 	N 	0.12709 0.05337 0.99093 -0.25500
N 	N 	0.11321 0.96835 0.94774 -0.26500
N 	N 	0.27342 0.02141 0.92713 -0.30000
N 	N 	0.22100 0.87340 0.86440 -0.27100
N 	N 	0.49502 0.73659 0.95285 -0.29100
N 	N 	0.48706 0.89595 0.93948 -0.26500
N 	N 	0.52496 0.87605 0.01497 -0.26400
N 	N 	0.56650 0.73089 0.08336 -0.33300
N 	N 	0.37291 0.55337 0.00907 -0.25300
N 	N 	0.38679 0.46835 0.05226 -0.27000
N 	N 	0.22658 0.52141 0.07287 -0.29600
N 	N 	0.27900 0.37340 0.13560 -0.27000
N 	N 	0.50498 0.76341 0.45285 -0.29100
N 	N 	0.51294 0.60405 0.43948 -0.26400
N 	N 	0.47504 0.62395 0.51497 -0.26400
N 	N 	0.43350 0.76911 0.58336 -0.33300
N 	N 	0.62709 0.94663 0.50907 -0.25400
N 	N 	0.61321 0.03165 0.55226 -0.26900
N 	N 	0.77342 0.97859 0.57287 -0.29900
N 	N 	0.72100 0.12660 0.63560 -0.27100
N 	N 	0.00498 0.73659 0.45285 -0.28800
N 	N 	0.01294 0.89595 0.43948 -0.25900
N 	N 	0.97504 0.87605 0.51497 -0.26700
N 	N 	0.93350 0.73089 0.58336 -0.33200
N 	N 	0.12709 0.55337 0.50907 -0.25300
N 	N 	0.11321 0.46835 0.55226 -0.27000
N 	N 	0.27342 0.52141 0.57287 -0.29600
N 	N 	0.22100 0.37340 0.63560 -0.27000
N 	N 	0.99502 0.76341 0.95285 -0.29600
N 	N 	0.98706 0.60405 0.93948 -0.26600
N 	N 	0.02496 0.62395 0.01497 -0.26400
N 	N 	0.06650 0.76911 0.08336 -0.33400
N 	N 	0.87291 0.94663 0.00907 -0.25500
N 	N 	0.88679 0.03165 0.05226 -0.26500
N 	N 	0.72658 0.97859 0.07287 -0.30000
N 	N 	0.77900 0.12660 0.13560 -0.27100
N 	N 	0.50498 0.26341 0.04715 -0.29100
N 	N 	0.51294 0.10405 0.06052 -0.26500
N 	N 	0.47504 0.12395 0.98503 -0.26400
N 	N 	0.43350 0.26911 0.91664 -0.33300
N 	N 	0.62709 0.44663 0.99093 -0.25300
N 	N 	0.61321 0.53165 0.94774 -0.27000
N 	N 	0.77342 0.47859 0.92713 -0.29600
N 	N 	0.72100 0.62660 0.86440 -0.27000
N 	N 	0.49502 0.23659 0.54715 -0.29100
N 	N 	0.48706 0.39595 0.56052 -0.26400
N 	N 	0.52496 0.37605 0.48503 -0.26400
N 	N 	0.56650 0.23089 0.41664 -0.33300
N 	N 	0.37291 0.05337 0.49093 -0.25400
N 	N 	0.38679 0.96835 0.44774 -0.26900
N 	N 	0.22658 0.02141 0.42713 -0.29900
N 	N 	0.27900 0.87340 0.36440 -0.27100
O 	O 	0.00069 0.35518 0.69134 -0.40800
O 	O 	0.91606 0.52312 0.64959 -0.40000
O 	O 	0.89425 0.55902 0.77868 -0.34900
O 	O 	0.98248 0.39139 0.81847 -0.43900
O 	O 	0.99931 0.14482 0.19134 -0.39100
O 	O 	0.08394 0.97688 0.14959 -0.40100
O 	O 	0.10575 0.94098 0.27868 -0.35000
O 	O 	0.01752 0.10861 0.31847 -0.43600
O 	O 	0.50069 0.64482 0.80866 -0.40800
O 	O 	0.41606 0.47688 0.85041 -0.39900
O 	O 	0.39425 0.44098 0.72132 -0.34900
O 	O 	0.48248 0.60861 0.68153 -0.43900
O 	O 	0.49931 0.85518 0.30866 -0.40800
O 	O 	0.58394 0.02312 0.35041 -0.39800
O 	O 	0.60575 0.05902 0.22132 -0.34800
O 	O 	0.51752 0.89139 0.18153 -0.43800
O 	O 	0.99931 0.64482 0.30866 -0.40800
O 	O 	0.08394 0.47688 0.35041 -0.40000
O 	O 	0.10575 0.44098 0.22132 -0.34900
O 	O 	0.01752 0.60861 0.18153 -0.43900
O 	O 	0.00069 0.85518 0.80866 -0.39100
O 	O 	0.91606 0.02312 0.85041 -0.40100
O 	O 	0.89425 0.05902 0.72132 -0.35000
O 	O 	0.98248 0.89139 0.68153 -0.43600
O 	O 	0.49931 0.35518 0.19134 -0.40800
O 	O 	0.58394 0.52312 0.14959 -0.39900
O 	O 	0.60575 0.55902 0.27868 -0.34900
O 	O 	0.51752 0.39139 0.31847 -0.43900
O 	O 	0.50069 0.14482 0.69134 -0.40800
O 	O 	0.41606 0.97688 0.64959 -0.39800
O 	O 	0.39425 0.94098 0.77868 -0.34800
O 	O 	0.48248 0.10861 0.81847 -0.43800
