data_crystal

_cell_length_a 12.87320
_cell_length_b 13.81070
_cell_length_c 16.80850
_cell_angle_alpha 90.00000
_cell_angle_beta  90.00000
_cell_angle_gamma 90.00000

_symmetry_space_group_name_	'P 1'
_symmetry_space_group_name_H-M	'P 1'

loop_
_symmetry_equiv_pos_as_xyz
  x,y,z

loop_
_atom_site_label
_atom_site_type_symbol
_atom_site_fract_x
_atom_site_fract_y
_atom_site_fract_z
_atom_site_charge
Zn	Zn	0.57061 0.97869 0.90282 1.18500
Zn	Zn	0.42939 0.52131 0.40282 1.18500
Zn	Zn	0.07061 0.02131 0.59718 1.18300
Zn	Zn	0.92939 0.47869 0.09718 1.18500
Zn	Zn	0.42939 0.02131 0.09718 1.18500
Zn	Zn	0.57061 0.47869 0.59718 1.18500
Zn	Zn	0.92939 0.97869 0.40282 1.18200
Zn	Zn	0.07061 0.52131 0.90282 1.18400
Zn	Zn	0.52388 0.90706 0.57463 1.18600
Zn	Zn	0.47612 0.59294 0.07463 1.18700
Zn	Zn	0.02388 0.09294 0.92537 1.18400
Zn	Zn	0.97612 0.40706 0.42537 1.18700
Zn	Zn	0.47612 0.09294 0.42537 1.18600
Zn	Zn	0.52388 0.40706 0.92537 1.18700
Zn	Zn	0.97612 0.90706 0.07463 1.18400
Zn	Zn	0.02388 0.59294 0.57463 1.18700
H 	H 	0.74510 0.86560 0.00180 -0.04900
H 	H 	0.25490 0.63440 0.50180 -0.04600
H 	H 	0.24510 0.13440 0.49820 -0.04700
H 	H 	0.75490 0.36560 0.99820 -0.04400
H 	H 	0.25490 0.13440 0.99820 -0.04900
H 	H 	0.74510 0.36560 0.49820 -0.04600
H 	H 	0.75490 0.86560 0.50180 -0.04700
H 	H 	0.24510 0.63440 0.00180 -0.04400
H 	H 	0.54820 0.19610 0.85270 -0.00400
H 	H 	0.45180 0.30390 0.35270 -0.00400
H 	H 	0.04820 0.80390 0.64730 -0.00400
H 	H 	0.95180 0.69610 0.14730 -0.00500
H 	H 	0.45180 0.80390 0.14730 -0.00400
H 	H 	0.54820 0.69610 0.64730 -0.00400
H 	H 	0.95180 0.19610 0.35270 -0.00400
H 	H 	0.04820 0.30390 0.85270 -0.00500
H 	H 	0.82950 0.16640 0.85180 0.13700
H 	H 	0.17050 0.33360 0.35180 0.13400
H 	H 	0.32950 0.83360 0.64820 0.13500
H 	H 	0.67050 0.66640 0.14820 0.13500
H 	H 	0.17050 0.83360 0.14820 0.13700
H 	H 	0.82950 0.66640 0.64820 0.13400
H 	H 	0.67050 0.16640 0.35180 0.13500
H 	H 	0.32950 0.33360 0.85180 0.13500
H 	H 	0.71920 0.13080 0.83680 0.14600
H 	H 	0.28080 0.36920 0.33680 0.14500
H 	H 	0.21920 0.86920 0.66320 0.14600
H 	H 	0.78080 0.63080 0.16320 0.14500
H 	H 	0.28080 0.86920 0.16320 0.14600
H 	H 	0.71920 0.63080 0.66320 0.14500
H 	H 	0.78080 0.13080 0.33680 0.14600
H 	H 	0.21920 0.36920 0.83680 0.14500
H 	H 	0.41480 0.23510 0.12800 0.15000
H 	H 	0.58520 0.26490 0.62800 0.15000
H 	H 	0.91480 0.76490 0.37200 0.15000
H 	H 	0.08520 0.73510 0.87200 0.15000
H 	H 	0.58520 0.76490 0.87200 0.15000
H 	H 	0.41480 0.73510 0.37200 0.15000
H 	H 	0.08520 0.23510 0.62800 0.15000
H 	H 	0.91480 0.26490 0.12800 0.15000
H 	H 	0.43600 0.33160 0.08710 0.13600
H 	H 	0.56400 0.16840 0.58710 0.13600
H 	H 	0.93600 0.66840 0.41290 0.13500
H 	H 	0.06400 0.83160 0.91290 0.13700
H 	H 	0.56400 0.66840 0.91290 0.13600
H 	H 	0.43600 0.83160 0.41290 0.13600
H 	H 	0.06400 0.33160 0.58710 0.13500
H 	H 	0.93600 0.16840 0.08710 0.13700
C 	C 	0.57530 0.00900 0.72120 0.19600
C 	C 	0.42470 0.49100 0.22120 0.19600
C 	C 	0.07530 0.99100 0.77880 0.20400
C 	C 	0.92470 0.50900 0.27880 0.19500
C 	C 	0.42470 0.99100 0.27880 0.19600
C 	C 	0.57530 0.50900 0.77880 0.19600
C 	C 	0.92470 0.00900 0.22120 0.20400
C 	C 	0.07530 0.49100 0.72120 0.19500
C 	C 	0.53030 0.91090 0.74430 0.25100
C 	C 	0.46970 0.58910 0.24430 0.25200
C 	C 	0.03030 0.08910 0.75570 0.24400
C 	C 	0.96970 0.41090 0.25570 0.25200
C 	C 	0.46970 0.08910 0.25570 0.25100
C 	C 	0.53030 0.41090 0.75570 0.25200
C 	C 	0.96970 0.91090 0.24430 0.24400
C 	C 	0.03030 0.58910 0.74430 0.25200
C 	C 	0.79720 0.04660 0.90900 0.18900
C 	C 	0.20280 0.45340 0.40900 0.18500
C 	C 	0.29720 0.95340 0.59100 0.18900
C 	C 	0.70280 0.54660 0.09100 0.18500
C 	C 	0.20280 0.95340 0.09100 0.18900
C 	C 	0.79720 0.54660 0.59100 0.18500
C 	C 	0.70280 0.04660 0.40900 0.18900
C 	C 	0.29720 0.45340 0.90900 0.18500
C 	C 	0.77570 0.92100 0.97790 0.10200
C 	C 	0.22430 0.57900 0.47790 0.10000
C 	C 	0.27570 0.07900 0.52210 0.09900
C 	C 	0.72430 0.42100 0.02210 0.09700
C 	C 	0.22430 0.07900 0.02210 0.10200
C 	C 	0.77570 0.42100 0.52210 0.10000
C 	C 	0.72430 0.92100 0.47790 0.09900
C 	C 	0.27570 0.57900 0.97790 0.09700
C 	C 	0.47380 0.22040 0.02200 0.19200
C 	C 	0.52620 0.27960 0.52200 0.19200
C 	C 	0.97380 0.77960 0.47800 0.18800
C 	C 	0.02620 0.72040 0.97800 0.19500
C 	C 	0.52620 0.77960 0.97800 0.19200
C 	C 	0.47380 0.72040 0.47800 0.19200
C 	C 	0.02620 0.22040 0.52200 0.18800
C 	C 	0.97380 0.27960 0.02200 0.19500
C 	C 	0.52540 0.18870 0.90620 0.08200
C 	C 	0.47460 0.31130 0.40620 0.08200
C 	C 	0.02540 0.81130 0.59380 0.08300
C 	C 	0.97460 0.68870 0.09380 0.08100
C 	C 	0.47460 0.81130 0.09380 0.08200
C 	C 	0.52540 0.68870 0.59380 0.08200
C 	C 	0.97460 0.18870 0.40620 0.08300
C 	C 	0.02540 0.31130 0.90620 0.08100
N 	N 	0.72460 0.97930 0.92650 -0.30600
N 	N 	0.27540 0.52070 0.42650 -0.30300
N 	N 	0.22460 0.02070 0.57350 -0.30600
N 	N 	0.77540 0.47930 0.07350 -0.30300
N 	N 	0.27540 0.02070 0.07350 -0.30600
N 	N 	0.72460 0.47930 0.57350 -0.30300
N 	N 	0.77540 0.97930 0.42650 -0.30600
N 	N 	0.22460 0.52070 0.92650 -0.30300
N 	N 	0.87100 0.94810 0.99150 -0.25900
N 	N 	0.12900 0.55190 0.49150 -0.25700
N 	N 	0.37100 0.05190 0.50850 -0.25800
N 	N 	0.62900 0.44810 0.00850 -0.25700
N 	N 	0.12900 0.05190 0.00850 -0.25900
N 	N 	0.87100 0.44810 0.50850 -0.25700
N 	N 	0.62900 0.94810 0.49150 -0.25800
N 	N 	0.37100 0.55190 0.99150 -0.25700
N 	N 	0.88640 0.03030 0.94660 -0.26900
N 	N 	0.11360 0.46970 0.44660 -0.27300
N 	N 	0.38640 0.96970 0.55340 -0.27200
N 	N 	0.61360 0.53030 0.05340 -0.27300
N 	N 	0.11360 0.96970 0.05340 -0.26900
N 	N 	0.88640 0.53030 0.55340 -0.27300
N 	N 	0.61360 0.03030 0.44660 -0.27200
N 	N 	0.38640 0.46970 0.94660 -0.27300
N 	N 	0.77990 0.12370 0.86010 -0.32500
N 	N 	0.22010 0.37630 0.36010 -0.32400
N 	N 	0.27990 0.87630 0.63990 -0.32500
N 	N 	0.72010 0.62370 0.13990 -0.32400
N 	N 	0.22010 0.87630 0.13990 -0.32500
N 	N 	0.77990 0.62370 0.63990 -0.32400
N 	N 	0.72010 0.12370 0.36010 -0.32500
N 	N 	0.27990 0.37630 0.86010 -0.32400
N 	N 	0.47800 0.12390 0.01710 -0.26500
N 	N 	0.52200 0.37610 0.51710 -0.26500
N 	N 	0.97800 0.87610 0.48290 -0.26800
N 	N 	0.02200 0.62390 0.98290 -0.26500
N 	N 	0.52200 0.87610 0.98290 -0.26500
N 	N 	0.47800 0.62390 0.48290 -0.26500
N 	N 	0.02200 0.12390 0.51710 -0.26800
N 	N 	0.97800 0.37610 0.01710 -0.26500
N 	N 	0.51210 0.10430 0.94078 -0.26400
N 	N 	0.48790 0.39570 0.44078 -0.26400
N 	N 	0.01210 0.89570 0.55922 -0.26000
N 	N 	0.98790 0.60430 0.05922 -0.26500
N 	N 	0.48790 0.89570 0.05922 -0.26400
N 	N 	0.51210 0.60430 0.55922 -0.26400
N 	N 	0.98790 0.10430 0.44078 -0.26000
N 	N 	0.01210 0.39570 0.94078 -0.26500
N 	N 	0.50320 0.26380 0.95460 -0.29200
N 	N 	0.49680 0.23620 0.45460 -0.29200
N 	N 	0.00320 0.73620 0.54540 -0.28900
N 	N 	0.99680 0.76380 0.04540 -0.29500
N 	N 	0.49680 0.73620 0.04540 -0.29200
N 	N 	0.50320 0.76380 0.54540 -0.29200
N 	N 	0.99680 0.26380 0.45460 -0.28900
N 	N 	0.00320 0.23620 0.95460 -0.29500
N 	N 	0.43730 0.26790 0.08650 -0.32200
N 	N 	0.56270 0.23210 0.58650 -0.32300
N 	N 	0.93730 0.73210 0.41350 -0.32200
N 	N 	0.06270 0.76790 0.91350 -0.32300
N 	N 	0.56270 0.73210 0.91350 -0.32200
N 	N 	0.43730 0.76790 0.41350 -0.32300
N 	N 	0.06270 0.26790 0.58650 -0.32200
N 	N 	0.93730 0.23210 0.08650 -0.32300
O 	O 	0.60110 0.06250 0.77790 -0.34300
O 	O 	0.39890 0.43750 0.27790 -0.34300
O 	O 	0.10110 0.93750 0.72210 -0.34300
O 	O 	0.89890 0.56250 0.22210 -0.34300
O 	O 	0.39890 0.93750 0.22210 -0.34300
O 	O 	0.60110 0.56250 0.72210 -0.34300
O 	O 	0.89890 0.06250 0.27790 -0.34300
O 	O 	0.10110 0.43750 0.77790 -0.34300
O 	O 	0.51960 0.89210 0.81629 -0.44200
O 	O 	0.48040 0.60790 0.31629 -0.44200
O 	O 	0.01960 0.10790 0.68371 -0.44200
O 	O 	0.98040 0.39210 0.18371 -0.44200
O 	O 	0.48040 0.10790 0.18371 -0.44200
O 	O 	0.51960 0.39210 0.68371 -0.44200
O 	O 	0.98040 0.89210 0.31629 -0.44200
O 	O 	0.01960 0.60790 0.81629 -0.44200
O 	O 	0.58190 0.02510 0.64793 -0.39200
O 	O 	0.41810 0.47490 0.14793 -0.39300
O 	O 	0.08190 0.97490 0.85207 -0.39200
O 	O 	0.91810 0.52510 0.35207 -0.39300
O 	O 	0.41810 0.97490 0.35207 -0.39200
O 	O 	0.58190 0.52510 0.85207 -0.39300
O 	O 	0.91810 0.02510 0.14793 -0.39200
O 	O 	0.08190 0.47490 0.64793 -0.39300
O 	O 	0.50480 0.85530 0.68949 -0.41400
O 	O 	0.49520 0.64470 0.18949 -0.41400
O 	O 	0.00480 0.14470 0.81051 -0.41600
O 	O 	0.99520 0.35530 0.31051 -0.41400
O 	O 	0.49520 0.14470 0.31051 -0.41400
O 	O 	0.50480 0.35530 0.81051 -0.41400
O 	O 	0.99520 0.85530 0.18949 -0.41600
O 	O 	0.00480 0.64470 0.68949 -0.41400
