data_crystal

_cell_length_a 17.30330
_cell_length_b 18.24810
_cell_length_c 18.24810
_cell_angle_alpha 77.00990
_cell_angle_beta  61.69850
_cell_angle_gamma 61.69850

_symmetry_space_group_name_	'P 1'
_symmetry_space_group_name_H-M	'P 1'

loop_
_symmetry_equiv_pos_as_xyz
  x,y,z

loop_
_atom_site_label
_atom_site_type_symbol
_atom_site_fract_x
_atom_site_fract_y
_atom_site_fract_z
_atom_site_charge
Zn	Zn	0.25000 0.50000 0.50000 1.24800
In	In	0.39096 0.40080 0.99946 2.01600
In	In	0.79122 0.59920 0.00054 1.98200
In	In	0.60958 0.99946 0.59920 2.01700
In	In	0.20824 0.00054 0.40080 1.97900
In	In	-0.00000 0.00000 -0.00000 1.94900
H 	H 	0.91140 0.78480 0.02160 0.06700
H 	H 	0.16440 0.70520 0.02500 0.06700
H 	H 	0.06860 0.53760 0.03360 0.07900
H 	H 	0.42450 0.28450 0.59590 0.07400
H 	H 	0.36320 0.46380 0.73840 0.08000
H 	H 	0.49740 0.21800 0.78800 0.08300
H 	H 	0.71780 0.21520 0.97840 0.08700
H 	H 	0.89460 0.29480 0.97500 0.09300
H 	H 	0.63980 0.46240 0.96640 0.09400
H 	H 	0.30490 0.71550 0.40410 0.08000
H 	H 	0.56540 0.53620 0.26160 0.06900
H 	H 	0.50340 0.78200 0.21200 0.08600
H 	H 	0.06700 0.02160 0.21520 0.14300
H 	H 	0.81060 0.02500 0.29480 0.10000
H 	H 	0.89780 0.03360 0.46240 0.13000
H 	H 	0.97960 0.59590 0.71550 0.11200
H 	H 	0.89840 0.73840 0.53620 0.10900
H 	H 	0.71460 0.78800 0.78200 0.10600
H 	H 	0.30380 0.97840 0.78480 0.09700
H 	H 	0.13040 0.97500 0.70520 0.08500
H 	H 	0.39380 0.96640 0.53760 0.09400
H 	H 	0.29100 0.40410 0.28450 0.07100
H 	H 	0.17300 0.26160 0.46380 0.05800
H 	H 	0.28460 0.21200 0.21800 0.06500
C 	C 	0.03610 0.75540 0.02540 -0.10500
C 	C 	0.96680 0.74050 0.02410 0.06200
C 	C 	0.22960 0.53420 0.01820 0.30900
C 	C 	0.97860 0.65840 0.02660 -0.00800
C 	C 	0.11770 0.69330 0.02510 0.01400
C 	C 	0.06160 0.59200 0.02920 -0.07000
C 	C 	0.02270 0.84660 0.01200 0.26800
C 	C 	0.13540 0.60900 0.02480 -0.05100
C 	C 	0.46660 0.24140 0.68420 -0.05000
C 	C 	0.42480 0.29960 0.64120 0.00500
C 	C 	0.38530 0.40850 0.72690 -0.00300
C 	C 	0.42580 0.34570 0.77530 -0.02400
C 	C 	0.37790 0.38910 0.66190 -0.04900
C 	C 	0.46920 0.25970 0.75650 -0.00900
C 	C 	0.43090 0.36260 0.85380 0.30400
C 	C 	0.33220 0.45370 0.60950 0.32900
C 	C 	0.51510 0.15390 0.65710 0.28600
C 	C 	0.90730 0.64030 0.01810 0.30600
C 	C 	0.81690 0.24460 0.97460 -0.03700
C 	C 	0.73140 0.25950 0.97590 0.00100
C 	C 	0.78200 0.46580 0.98180 0.30500
C 	C 	0.66360 0.34160 0.97340 -0.03500
C 	C 	0.83610 0.30670 0.97490 0.00100
C 	C 	0.68280 0.40800 0.97080 -0.00500
C 	C 	0.88130 0.15340 0.98800 0.33100
C 	C 	0.76920 0.39100 0.97520 -0.02400
C 	C 	0.39220 0.75860 0.31580 -0.04100
C 	C 	0.36560 0.70040 0.35880 0.00400
C 	C 	0.52070 0.59150 0.27310 0.00000
C 	C 	0.54680 0.65430 0.22470 -0.03400
C 	C 	0.42890 0.61090 0.33810 -0.05100
C 	C 	0.48540 0.74030 0.24350 -0.00700
C 	C 	0.64730 0.63740 0.14620 0.31500
C 	C 	0.39540 0.54630 0.39050 0.33000
C 	C 	0.32610 0.84610 0.34290 0.28200
C 	C 	0.56570 0.35970 0.98190 0.31100
C 	C 	0.93850 0.02540 0.24460 0.09400
C 	C 	0.00910 0.02410 0.25950 -0.27700
C 	C 	0.75220 0.01820 0.46580 0.28400
C 	C 	0.99480 0.02660 0.34160 0.17000
C 	C 	0.85720 0.02510 0.30670 -0.10000
C 	C 	0.90920 0.02920 0.40800 -0.12600
C 	C 	0.96530 0.01200 0.15340 0.38000
C 	C 	0.83980 0.02480 0.39100 0.03000
C 	C 	0.84920 0.68420 0.75860 -0.00200
C 	C 	0.93400 0.64120 0.70040 -0.03700
C 	C 	0.88780 0.72690 0.59150 -0.04600
C 	C 	0.79890 0.77530 0.65430 0.01200
C 	C 	0.96020 0.66190 0.61090 0.03900
C 	C 	0.77430 0.75650 0.74030 -0.03300
C 	C 	0.71530 0.85380 0.63740 0.29400
C 	C 	0.05830 0.60950 0.54630 0.26500
C 	C 	0.82780 0.65710 0.84610 0.27300
C 	C 	0.07460 0.01810 0.35970 0.19400
C 	C 	0.20850 0.97460 0.75540 -0.03200
C 	C 	0.29270 0.97590 0.74050 -0.00400
C 	C 	0.23620 0.98180 0.53420 0.30700
C 	C 	0.36300 0.97340 0.65840 -0.03000
C 	C 	0.18900 0.97490 0.69330 -0.00200
C 	C 	0.34640 0.97080 0.59200 -0.00600
C 	C 	0.13070 0.98800 0.84660 0.32300
C 	C 	0.25560 0.97520 0.60900 -0.02700
C 	C 	0.29200 0.31580 0.24140 -0.06600
C 	C 	0.27560 0.35880 0.29960 0.01300
C 	C 	0.20620 0.27310 0.40850 0.00800
C 	C 	0.22850 0.22470 0.34570 -0.05400
C 	C 	0.23300 0.33810 0.38910 -0.06600
C 	C 	0.27110 0.24350 0.25970 0.00000
C 	C 	0.20650 0.14620 0.36260 0.31700
C 	C 	0.21410 0.39050 0.45370 0.33400
C 	C 	0.33100 0.34290 0.15390 0.28800
C 	C 	0.45240 0.98190 0.64030 0.30800
O 	O 	0.23500 0.46270 0.02090 -0.46900
O 	O 	0.91390 0.56820 0.02900 -0.45700
O 	O 	0.41190 0.43720 0.86140 -0.38300
O 	O 	0.83900 0.69910 0.00470 -0.41100
O 	O 	0.52000 0.13360 0.59420 -0.47100
O 	O 	0.56480 0.09210 0.69650 -0.39600
O 	O 	0.42800 0.31180 0.90780 -0.42700
O 	O 	0.29810 0.54530 0.01170 -0.42900
O 	O 	0.95370 0.90240 0.00880 -0.39700
O 	O 	0.09090 0.85800 0.01400 -0.39200
O 	O 	0.31640 0.42100 0.56520 -0.41800
O 	O 	0.31160 0.52540 0.61660 -0.26900
O 	O 	0.71860 0.53730 0.97910 -0.40900
O 	O 	0.51110 0.43180 0.97100 -0.42900
O 	O 	0.71050 0.56280 0.13860 -0.42000
O 	O 	0.54280 0.30090 0.99530 -0.37900
O 	O 	0.24780 0.86640 0.40580 -0.42700
O 	O 	0.35340 0.90790 0.30350 -0.34600
O 	O 	0.64760 0.68820 0.09220 -0.46000
O 	O 	0.85510 0.45470 0.98830 -0.36200
O 	O 	0.86490 0.09760 0.99120 -0.44100
O 	O 	0.96290 0.14200 0.98600 -0.36300
O 	O 	0.30260 0.57900 0.43480 -0.41400
O 	O 	0.45360 0.47460 0.38340 -0.27400
O 	O 	0.74410 0.02090 0.53730 -0.45000
O 	O 	0.05710 0.02900 0.43180 -0.47100
O 	O 	0.72670 0.86140 0.56280 -0.37500
O 	O 	0.15630 0.00470 0.30090 -0.41100
O 	O 	0.88580 0.59420 0.86640 -0.41500
O 	O 	0.73870 0.69650 0.90790 -0.33700
O 	O 	0.66420 0.90780 0.68820 -0.41000
O 	O 	0.69020 0.01170 0.45470 -0.42300
O 	O 	0.03750 0.00880 0.09760 -0.57800
O 	O 	0.89510 0.01400 0.14200 -0.43800
O 	O 	0.11840 0.56520 0.57900 -0.41200
O 	O 	0.07180 0.61660 0.47460 -0.26800
O 	O 	0.30230 0.97910 0.46270 -0.40800
O 	O 	0.51790 0.97100 0.56820 -0.42700
O 	O 	0.15090 0.13860 0.43720 -0.43800
O 	O 	0.46190 0.99530 0.69910 -0.37000
O 	O 	0.34640 0.40580 0.13360 -0.47200
O 	O 	0.34310 0.30350 0.09210 -0.41100
O 	O 	0.26020 0.09220 0.31180 -0.47900
O 	O 	0.15660 0.98830 0.54530 -0.37300
O 	O 	0.14390 0.99120 0.90240 -0.41400
O 	O 	0.05110 0.98600 0.85800 -0.37500
O 	O 	0.26260 0.43480 0.42100 -0.41900
O 	O 	0.16300 0.38340 0.52540 -0.28800
