data_crystal

_cell_length_a 13.28900
_cell_length_b 13.71100
_cell_length_c 16.46700
_cell_angle_alpha 90.00000
_cell_angle_beta  90.00000
_cell_angle_gamma 117.02000

_symmetry_space_group_name_	'P 1'
_symmetry_space_group_name_H-M	'P 1'

loop_
_symmetry_equiv_pos_as_xyz
  x,y,z

loop_
_atom_site_label
_atom_site_type_symbol
_atom_site_fract_x
_atom_site_fract_y
_atom_site_fract_z
_atom_site_charge
Zn	Zn	0.09252 0.11422 0.50296 1.21400
Zn	Zn	0.90748 0.38578 0.00296 1.21300
Zn	Zn	0.90748 0.88578 0.49704 1.21500
Zn	Zn	0.09252 0.61422 0.99704 1.21400
H 	H 	0.33550 0.18590 0.52030 0.00200
H 	H 	0.50670 0.34020 0.51930 0.07600
H 	H 	0.34180 0.51890 0.47880 0.08000
H 	H 	0.17540 0.35900 0.47910 -0.00100
H 	H 	0.92500 0.26550 0.34690 0.08200
H 	H 	0.83750 0.30740 0.23940 0.01100
H 	H 	0.70570 0.16910 0.15990 0.12100
H 	H 	0.74530 0.94450 0.29560 0.11000
H 	H 	0.50940 0.88000 0.29030 0.08700
H 	H 	0.42490 0.69770 0.33190 0.07000
H 	H 	0.56630 0.62110 0.14230 0.07600
H 	H 	0.65150 0.80350 0.10090 0.07700
H 	H 	0.33320 0.34610 0.32110 0.12200
H 	H 	0.14850 0.22020 0.29290 0.01400
H 	H 	0.04180 0.26380 0.20170 0.08600
H 	H 	0.30230 0.56480 0.17200 0.10900
H 	H 	0.66450 0.31410 0.02030 0.00200
H 	H 	0.49330 0.15980 0.01930 0.07700
H 	H 	0.65820 0.98110 0.97880 0.07800
H 	H 	0.82460 0.14100 0.97910 0.00000
H 	H 	0.07500 0.23450 0.84690 0.08100
H 	H 	0.16250 0.19260 0.73940 0.01100
H 	H 	0.29430 0.33090 0.65990 0.12100
H 	H 	0.25470 0.55550 0.79560 0.10900
H 	H 	0.49060 0.62000 0.79030 0.08700
H 	H 	0.57510 0.80230 0.83190 0.07000
H 	H 	0.43370 0.87890 0.64230 0.07600
H 	H 	0.34850 0.69650 0.60090 0.07700
H 	H 	0.66680 0.15390 0.82110 0.12200
H 	H 	0.85150 0.27980 0.79290 0.01500
H 	H 	0.95820 0.23620 0.70170 0.08500
H 	H 	0.69770 0.93520 0.67200 0.10700
H 	H 	0.66450 0.81410 0.47970 0.00200
H 	H 	0.49330 0.65980 0.48070 0.07600
H 	H 	0.65820 0.48110 0.52120 0.08000
H 	H 	0.82460 0.64100 0.52090 -0.00100
H 	H 	0.07500 0.73450 0.65310 0.08200
H 	H 	0.16250 0.69260 0.76060 0.01100
H 	H 	0.29430 0.83090 0.84010 0.12100
H 	H 	0.25470 0.05550 0.70440 0.11000
H 	H 	0.49060 0.12000 0.70970 0.08700
H 	H 	0.57510 0.30230 0.66810 0.07000
H 	H 	0.43370 0.37890 0.85770 0.07600
H 	H 	0.34850 0.19650 0.89910 0.07700
H 	H 	0.66680 0.65390 0.67890 0.12200
H 	H 	0.85150 0.77980 0.70710 0.01400
H 	H 	0.95820 0.73620 0.79830 0.08600
H 	H 	0.69770 0.43520 0.82800 0.10900
H 	H 	0.33550 0.68590 0.97970 0.00200
H 	H 	0.50670 0.84020 0.98070 0.07700
H 	H 	0.34180 0.01890 0.02120 0.07800
H 	H 	0.17540 0.85900 0.02090 0.00000
H 	H 	0.92500 0.76550 0.15310 0.08100
H 	H 	0.83750 0.80740 0.26060 0.01100
H 	H 	0.70570 0.66910 0.34010 0.12100
H 	H 	0.74530 0.44450 0.20440 0.10900
H 	H 	0.50940 0.38000 0.20970 0.08700
H 	H 	0.42490 0.19770 0.16810 0.07000
H 	H 	0.56630 0.12110 0.35770 0.07600
H 	H 	0.65150 0.30350 0.39910 0.07700
H 	H 	0.33320 0.84610 0.17890 0.12200
H 	H 	0.14850 0.72020 0.20710 0.01500
H 	H 	0.04180 0.76380 0.29830 0.08500
H 	H 	0.30230 0.06480 0.32800 0.10700
C 	C 	0.33711 0.25368 0.51184 0.06600
C 	C 	0.44061 0.34652 0.51153 -0.12100
C 	C 	0.44564 0.44912 0.49961 0.06600
C 	C 	0.34293 0.45234 0.48728 -0.12100
C 	C 	0.24283 0.35546 0.48789 0.08000
C 	C 	0.90274 0.07115 0.39774 0.34500
C 	C 	0.84412 0.10093 0.33153 0.00700
C 	C 	0.87195 0.20985 0.31512 -0.10500
C 	C 	0.81942 0.23475 0.25048 0.07300
C 	C 	0.74062 0.15214 0.20270 -0.20300
C 	C 	0.71420 0.04350 0.21936 0.23300
C 	C 	0.76452 0.01721 0.28406 -0.17700
C 	C 	0.58927 0.85822 0.19275 0.17300
C 	C 	0.52117 0.82799 0.26120 -0.11500
C 	C 	0.47070 0.71938 0.28598 -0.09200
C 	C 	0.48981 0.64375 0.24105 0.15800
C 	C 	0.55587 0.67348 0.17200 -0.09600
C 	C 	0.60661 0.78217 0.14723 -0.10600
C 	C 	0.33519 0.46737 0.24923 0.22800
C 	C 	0.28978 0.36407 0.28555 -0.20500
C 	C 	0.17966 0.28864 0.26817 0.07200
C 	C 	0.11538 0.31502 0.21371 -0.10200
C 	C 	0.16128 0.41814 0.17727 0.00700
C 	C 	0.27170 0.49558 0.19542 -0.17200
C 	C 	0.09400 0.44591 0.11665 0.34500
C 	C 	0.66289 0.24632 0.01184 0.06700
C 	C 	0.55939 0.15348 0.01153 -0.12500
C 	C 	0.55436 0.05088 0.99961 0.06800
C 	C 	0.65707 0.04766 0.98728 -0.11800
C 	C 	0.75717 0.14454 0.98789 0.08300
C 	C 	0.09726 0.42885 0.89774 0.34600
C 	C 	0.15588 0.39907 0.83153 0.00700
C 	C 	0.12805 0.29015 0.81512 -0.10500
C 	C 	0.18058 0.26525 0.75048 0.07300
C 	C 	0.25938 0.34786 0.70270 -0.20300
C 	C 	0.28580 0.45650 0.71936 0.23400
C 	C 	0.23548 0.48279 0.78406 -0.17600
C 	C 	0.41073 0.64178 0.69275 0.17200
C 	C 	0.47883 0.67201 0.76120 -0.11500
C 	C 	0.52930 0.78062 0.78598 -0.09300
C 	C 	0.51019 0.85625 0.74105 0.15800
C 	C 	0.44413 0.82652 0.67200 -0.09700
C 	C 	0.39339 0.71783 0.64723 -0.10700
C 	C 	0.66481 0.03263 0.74923 0.22800
C 	C 	0.71022 0.13593 0.78555 -0.20400
C 	C 	0.82034 0.21136 0.76817 0.07200
C 	C 	0.88462 0.18498 0.71371 -0.10100
C 	C 	0.83872 0.08186 0.67727 0.00500
C 	C 	0.72830 0.00442 0.69542 -0.17000
C 	C 	0.90600 0.05409 0.61665 0.34700
C 	C 	0.66289 0.74632 0.48816 0.06600
C 	C 	0.55939 0.65348 0.48847 -0.12100
C 	C 	0.55436 0.55088 0.50039 0.06600
C 	C 	0.65707 0.54766 0.51272 -0.12100
C 	C 	0.75717 0.64454 0.51211 0.08000
C 	C 	0.09726 0.92885 0.60226 0.34500
C 	C 	0.15588 0.89907 0.66847 0.00700
C 	C 	0.12805 0.79015 0.68488 -0.10500
C 	C 	0.18058 0.76525 0.74952 0.07300
C 	C 	0.25938 0.84786 0.79730 -0.20300
C 	C 	0.28580 0.95650 0.78064 0.23300
C 	C 	0.23548 0.98279 0.71594 -0.17700
C 	C 	0.41073 0.14178 0.80725 0.17300
C 	C 	0.47883 0.17201 0.73880 -0.11500
C 	C 	0.52930 0.28062 0.71402 -0.09200
C 	C 	0.51019 0.35625 0.75895 0.15800
C 	C 	0.44413 0.32652 0.82800 -0.09600
C 	C 	0.39339 0.21783 0.85277 -0.10600
C 	C 	0.66481 0.53263 0.75077 0.22800
C 	C 	0.71022 0.63593 0.71445 -0.20500
C 	C 	0.82034 0.71136 0.73183 0.07200
C 	C 	0.88462 0.68498 0.78629 -0.10200
C 	C 	0.83872 0.58186 0.82273 0.00700
C 	C 	0.72830 0.50442 0.80458 -0.17200
C 	C 	0.90600 0.55409 0.88335 0.34500
C 	C 	0.33711 0.75368 0.98816 0.06700
C 	C 	0.44061 0.84652 0.98847 -0.12500
C 	C 	0.44564 0.94912 0.00039 0.06800
C 	C 	0.34293 0.95234 0.01272 -0.11800
C 	C 	0.24283 0.85546 0.01211 0.08300
C 	C 	0.90274 0.57115 0.10226 0.34600
C 	C 	0.84412 0.60093 0.16847 0.00700
C 	C 	0.87195 0.70985 0.18488 -0.10500
C 	C 	0.81942 0.73475 0.24952 0.07300
C 	C 	0.74062 0.65214 0.29730 -0.20300
C 	C 	0.71420 0.54350 0.28064 0.23400
C 	C 	0.76452 0.51721 0.21594 -0.17600
C 	C 	0.58927 0.35822 0.30725 0.17200
C 	C 	0.52117 0.32799 0.23880 -0.11500
C 	C 	0.47070 0.21938 0.21402 -0.09300
C 	C 	0.48981 0.14375 0.25895 0.15800
C 	C 	0.55587 0.17348 0.32800 -0.09700
C 	C 	0.60661 0.28217 0.35277 -0.10700
C 	C 	0.33519 0.96737 0.25077 0.22800
C 	C 	0.28978 0.86407 0.21445 -0.20400
C 	C 	0.17966 0.78864 0.23183 0.07200
C 	C 	0.11538 0.81502 0.28629 -0.10100
C 	C 	0.16128 0.91814 0.32273 0.00500
C 	C 	0.27170 0.99558 0.30458 -0.17000
C 	C 	0.09400 0.94591 0.38335 0.34700
N 	N 	0.23879 0.25781 0.50043 -0.25000
N 	N 	0.76121 0.24219 0.00043 -0.25300
N 	N 	0.76121 0.74219 0.49957 -0.25000
N 	N 	0.23879 0.75781 0.99957 -0.25300
O 	O 	0.99217 0.14679 0.42611 -0.44500
O 	O 	0.85917 0.97230 0.41882 -0.45900
O 	O 	0.63924 0.96613 0.16676 -0.26200
O 	O 	0.44554 0.53576 0.26847 -0.26100
O 	O 	0.13586 0.54299 0.09129 -0.45100
O 	O 	0.00072 0.36927 0.09490 -0.44200
O 	O 	0.00783 0.35321 0.92611 -0.44700
O 	O 	0.14083 0.52770 0.91882 -0.45900
O 	O 	0.36076 0.53387 0.66676 -0.26300
O 	O 	0.55446 0.96424 0.76847 -0.26200
O 	O 	0.86414 0.95701 0.59129 -0.45400
O 	O 	0.99928 0.13073 0.59490 -0.44400
O 	O 	0.00783 0.85321 0.57389 -0.44500
O 	O 	0.14083 0.02770 0.58118 -0.45900
O 	O 	0.36076 0.03387 0.83324 -0.26200
O 	O 	0.55446 0.46424 0.73153 -0.26100
O 	O 	0.86414 0.45701 0.90871 -0.45100
O 	O 	0.99928 0.63073 0.90510 -0.44200
O 	O 	0.99217 0.64679 0.07389 -0.44700
O 	O 	0.85917 0.47230 0.08118 -0.45900
O 	O 	0.63924 0.46613 0.33324 -0.26300
O 	O 	0.44554 0.03576 0.23153 -0.26200
O 	O 	0.13586 0.04299 0.40871 -0.45400
O 	O 	0.00072 0.86927 0.40510 -0.44400
