data_crystal

_cell_length_a 11.52280
_cell_length_b 11.52280
_cell_length_c 25.76920
_cell_angle_alpha 90.00000
_cell_angle_beta  90.00000
_cell_angle_gamma 90.00000

_symmetry_space_group_name_	'P 1'
_symmetry_space_group_name_H-M	'P 1'

loop_
_symmetry_equiv_pos_as_xyz
  x,y,z

loop_
_atom_site_label
_atom_site_type_symbol
_atom_site_fract_x
_atom_site_fract_y
_atom_site_fract_z
_atom_site_charge
Zn	Zn	0.59861 0.59861 0.79218 1.17300
Zn	Zn	0.40139 0.40139 0.79218 1.17300
Zn	Zn	0.40139 0.59861 0.29218 1.17300
Zn	Zn	0.59861 0.40139 0.29218 1.17300
Zn	Zn	0.40139 0.59861 0.70782 1.17300
Zn	Zn	0.59861 0.40139 0.70782 1.17300
Zn	Zn	0.59861 0.59861 0.20782 1.17300
Zn	Zn	0.40139 0.40139 0.20782 1.17300
H 	H 	0.90950 0.71590 0.81280 0.20500
H 	H 	0.82780 0.64510 0.84980 0.19400
H 	H 	0.95880 0.61060 0.84440 0.22000
H 	H 	0.09050 0.28410 0.81280 0.20500
H 	H 	0.17220 0.35490 0.84980 0.19400
H 	H 	0.04120 0.38940 0.84440 0.22000
H 	H 	0.28410 0.90950 0.31280 0.20500
H 	H 	0.35490 0.82780 0.34980 0.19400
H 	H 	0.38940 0.95880 0.34440 0.22100
H 	H 	0.71590 0.09050 0.31280 0.20600
H 	H 	0.64510 0.17220 0.34980 0.19500
H 	H 	0.61060 0.04120 0.34440 0.22100
H 	H 	0.09050 0.71590 0.68720 0.20600
H 	H 	0.17220 0.64510 0.65020 0.19500
H 	H 	0.04120 0.61060 0.65560 0.22100
H 	H 	0.90950 0.28410 0.68720 0.20600
H 	H 	0.82780 0.35490 0.65020 0.19500
H 	H 	0.95880 0.38940 0.65560 0.22100
H 	H 	0.71590 0.90950 0.18720 0.20600
H 	H 	0.64510 0.82780 0.15020 0.19500
H 	H 	0.61060 0.95880 0.15560 0.22100
H 	H 	0.28410 0.09050 0.18720 0.20600
H 	H 	0.35490 0.17220 0.15020 0.19500
H 	H 	0.38940 0.04120 0.15560 0.22100
H 	H 	0.09050 0.28410 0.18720 0.20600
H 	H 	0.17220 0.35490 0.15020 0.19500
H 	H 	0.04120 0.38940 0.15560 0.22100
H 	H 	0.90950 0.71590 0.18720 0.20600
H 	H 	0.82780 0.64510 0.15020 0.19500
H 	H 	0.95880 0.61060 0.15560 0.22100
H 	H 	0.71590 0.09050 0.68720 0.20600
H 	H 	0.64510 0.17220 0.65020 0.19500
H 	H 	0.61060 0.04120 0.65560 0.22100
H 	H 	0.28410 0.90950 0.68720 0.20600
H 	H 	0.35490 0.82780 0.65020 0.19500
H 	H 	0.38940 0.95880 0.65560 0.22100
H 	H 	0.90950 0.28410 0.31280 0.20600
H 	H 	0.82780 0.35490 0.34980 0.19500
H 	H 	0.95880 0.38940 0.34440 0.22100
H 	H 	0.09050 0.71590 0.31280 0.20600
H 	H 	0.17220 0.64510 0.34980 0.19500
H 	H 	0.04120 0.61060 0.34440 0.22100
H 	H 	0.28410 0.09050 0.81280 0.20600
H 	H 	0.35490 0.17220 0.84980 0.19500
H 	H 	0.38940 0.04120 0.84440 0.22100
H 	H 	0.71590 0.90950 0.81280 0.20600
H 	H 	0.64510 0.82780 0.84980 0.19500
H 	H 	0.61060 0.95880 0.84440 0.22100
H 	H 	0.62110 0.62110 0.95560 0.02100
H 	H 	0.37890 0.37890 0.95560 0.02100
H 	H 	0.37890 0.62110 0.45560 0.02100
H 	H 	0.62110 0.37890 0.45560 0.02100
H 	H 	0.37890 0.62110 0.54440 0.02100
H 	H 	0.62110 0.37890 0.54440 0.02100
H 	H 	0.62110 0.62110 0.04440 0.02100
H 	H 	0.37890 0.37890 0.04440 0.02100
C 	C 	0.89230 0.64010 0.82630 -0.72600
C 	C 	0.86250 0.56100 0.78278 0.24300
C 	C 	0.10770 0.35990 0.82630 -0.72600
C 	C 	0.13750 0.43900 0.78278 0.24300
C 	C 	0.35990 0.89230 0.32630 -0.72600
C 	C 	0.43900 0.86250 0.28278 0.24300
C 	C 	0.64010 0.10770 0.32630 -0.72600
C 	C 	0.56100 0.13750 0.28278 0.24300
C 	C 	0.10770 0.64010 0.67370 -0.72600
C 	C 	0.13750 0.56100 0.71722 0.24300
C 	C 	0.89230 0.35990 0.67370 -0.72600
C 	C 	0.86250 0.43900 0.71722 0.24300
C 	C 	0.64010 0.89230 0.17370 -0.72600
C 	C 	0.56100 0.86250 0.21722 0.24300
C 	C 	0.35990 0.10770 0.17370 -0.72600
C 	C 	0.43900 0.13750 0.21722 0.24300
C 	C 	0.10770 0.35990 0.17370 -0.72600
C 	C 	0.13750 0.43900 0.21722 0.24300
C 	C 	0.89230 0.64010 0.17370 -0.72600
C 	C 	0.86250 0.56100 0.21722 0.24300
C 	C 	0.64010 0.10770 0.67370 -0.72600
C 	C 	0.56100 0.13750 0.71722 0.24300
C 	C 	0.35990 0.89230 0.67370 -0.72600
C 	C 	0.43900 0.86250 0.71722 0.24300
C 	C 	0.89230 0.35990 0.32630 -0.72600
C 	C 	0.86250 0.43900 0.28278 0.24300
C 	C 	0.10770 0.64010 0.32630 -0.72600
C 	C 	0.13750 0.56100 0.28278 0.24300
C 	C 	0.35990 0.10770 0.82630 -0.72600
C 	C 	0.43900 0.13750 0.78278 0.24300
C 	C 	0.64010 0.89230 0.82630 -0.72600
C 	C 	0.56100 0.86250 0.78278 0.24300
C 	C 	0.57140 0.57140 0.97330 -0.01600
C 	C 	0.42860 0.42860 0.97330 -0.01600
C 	C 	0.42860 0.57140 0.47330 -0.01600
C 	C 	0.57140 0.42860 0.47330 -0.01600
C 	C 	0.42860 0.57140 0.52670 -0.01600
C 	C 	0.57140 0.42860 0.52670 -0.01600
C 	C 	0.57140 0.57140 0.02670 -0.01600
C 	C 	0.42860 0.42860 0.02670 -0.01600
C 	C 	0.93520 0.50000 0.75000 -0.16500
C 	C 	0.06480 0.50000 0.75000 -0.16500
C 	C 	0.50000 0.93520 0.25000 -0.16500
C 	C 	0.50000 0.06480 0.25000 -0.16500
C 	C 	0.06480 0.50000 0.25000 -0.16500
C 	C 	0.93520 0.50000 0.25000 -0.16500
C 	C 	0.50000 0.06480 0.75000 -0.16500
C 	C 	0.50000 0.93520 0.75000 -0.16500
C 	C 	0.50000 0.50000 0.88810 0.41400
C 	C 	0.50000 0.50000 0.94600 -0.12300
C 	C 	0.50000 0.50000 0.38810 0.41400
C 	C 	0.50000 0.50000 0.44600 -0.12300
C 	C 	0.50000 0.50000 0.61190 0.41400
C 	C 	0.50000 0.50000 0.55400 -0.12300
C 	C 	0.50000 0.50000 0.11190 0.41400
C 	C 	0.50000 0.50000 0.05400 -0.12300
N 	N 	0.75230 0.53850 0.77058 -0.31500
N 	N 	0.24770 0.46150 0.77058 -0.31500
N 	N 	0.46150 0.75230 0.27058 -0.31500
N 	N 	0.53850 0.24770 0.27058 -0.31500
N 	N 	0.24770 0.53850 0.72942 -0.31500
N 	N 	0.75230 0.46150 0.72942 -0.31500
N 	N 	0.53850 0.75230 0.22942 -0.31500
N 	N 	0.46150 0.24770 0.22942 -0.31500
N 	N 	0.24770 0.46150 0.22942 -0.31500
N 	N 	0.75230 0.53850 0.22942 -0.31500
N 	N 	0.53850 0.24770 0.72942 -0.31500
N 	N 	0.46150 0.75230 0.72942 -0.31500
N 	N 	0.75230 0.46150 0.27058 -0.31500
N 	N 	0.24770 0.53850 0.27058 -0.31500
N 	N 	0.46150 0.24770 0.77058 -0.31500
N 	N 	0.53850 0.75230 0.77058 -0.31500
O 	O 	0.56840 0.56840 0.86619 -0.56000
O 	O 	0.43160 0.43160 0.86619 -0.56000
O 	O 	0.43160 0.56840 0.36619 -0.56000
O 	O 	0.56840 0.43160 0.36619 -0.56000
O 	O 	0.43160 0.56840 0.63381 -0.56000
O 	O 	0.56840 0.43160 0.63381 -0.56000
O 	O 	0.56840 0.56840 0.13381 -0.56000
O 	O 	0.43160 0.43160 0.13381 -0.56000
O 	O 	0.50000 0.50000 0.75000 -0.98200
O 	O 	0.50000 0.50000 0.25000 -0.98200
