data_crystal

_cell_length_a 6.60950
_cell_length_b 21.10120
_cell_length_c 21.10120
_cell_angle_alpha 90.00000
_cell_angle_beta  90.00000
_cell_angle_gamma 90.00000

_symmetry_space_group_name_	'P 1'
_symmetry_space_group_name_H-M	'P 1'

loop_
_symmetry_equiv_pos_as_xyz
  x,y,z

loop_
_atom_site_label
_atom_site_type_symbol
_atom_site_fract_x
_atom_site_fract_y
_atom_site_fract_z
_atom_site_charge
Al	Al	-0.00000 0.75000 0.75000 2.38800
Al	Al	0.00000 0.25000 0.25000 2.38800
Al	Al	-0.00000 0.75000 0.25000 2.38800
Al	Al	-0.00000 0.25000 0.75000 2.38800
Al	Al	0.50000 0.75000 0.75000 2.41000
Al	Al	0.50000 0.25000 0.25000 2.41000
Al	Al	0.50000 0.75000 0.25000 2.41000
Al	Al	0.50000 0.25000 0.75000 2.41000
H 	H 	0.47000 0.79000 0.94000 0.03800
H 	H 	0.06100 0.67800 0.88000 0.05800
H 	H 	0.35000 0.63000 0.94000 0.04600
H 	H 	0.47000 0.21000 0.06000 0.03800
H 	H 	0.06100 0.32200 0.12000 0.05800
H 	H 	0.35000 0.37000 0.06000 0.04600
H 	H 	0.47000 0.56000 0.29000 0.03800
H 	H 	0.06100 0.62000 0.17800 0.05800
H 	H 	0.35000 0.56000 0.13000 0.04600
H 	H 	0.47000 0.44000 0.71000 0.03800
H 	H 	0.06100 0.38000 0.82200 0.05800
H 	H 	0.35000 0.44000 0.87000 0.04600
H 	H 	0.53000 0.71000 0.44000 0.06400
H 	H 	0.93900 0.82200 0.38000 0.06900
H 	H 	0.65000 0.87000 0.44000 0.04600
H 	H 	0.53000 0.29000 0.56000 0.06400
H 	H 	0.93900 0.17800 0.62000 0.06900
H 	H 	0.65000 0.13000 0.56000 0.04600
H 	H 	0.53000 0.94000 0.79000 0.06400
H 	H 	0.93900 0.88000 0.67800 0.06900
H 	H 	0.65000 0.94000 0.63000 0.04600
H 	H 	0.53000 0.06000 0.21000 0.06400
H 	H 	0.93900 0.12000 0.32200 0.06900
H 	H 	0.65000 0.06000 0.37000 0.04600
H 	H 	0.53000 0.71000 0.56000 0.06400
H 	H 	0.93900 0.82200 0.62000 0.06900
H 	H 	0.65000 0.87000 0.56000 0.04600
H 	H 	0.53000 0.29000 0.44000 0.06400
H 	H 	0.93900 0.17800 0.38000 0.06900
H 	H 	0.65000 0.13000 0.44000 0.04600
H 	H 	0.53000 0.94000 0.21000 0.06400
H 	H 	0.93900 0.88000 0.32200 0.06900
H 	H 	0.65000 0.94000 0.37000 0.04600
H 	H 	0.53000 0.06000 0.79000 0.06400
H 	H 	0.93900 0.12000 0.67800 0.06900
H 	H 	0.65000 0.06000 0.63000 0.04600
H 	H 	0.47000 0.79000 0.06000 0.03800
H 	H 	0.06100 0.67800 0.12000 0.05800
H 	H 	0.35000 0.63000 0.06000 0.04600
H 	H 	0.47000 0.21000 0.94000 0.03800
H 	H 	0.06100 0.32200 0.88000 0.05800
H 	H 	0.35000 0.37000 0.94000 0.04600
H 	H 	0.47000 0.56000 0.71000 0.03800
H 	H 	0.06100 0.62000 0.82200 0.05800
H 	H 	0.35000 0.56000 0.87000 0.04600
H 	H 	0.47000 0.44000 0.29000 0.03800
H 	H 	0.06100 0.38000 0.17800 0.05800
H 	H 	0.35000 0.44000 0.13000 0.04600
C 	C 	0.73000 0.74700 0.86100 0.59300
C 	C 	0.74000 0.74300 0.93200 -0.16600
C 	C 	0.90300 0.71100 0.96600 0.20600
C 	C 	0.59000 0.77000 0.96600 0.03000
C 	C 	0.06100 0.67800 0.93200 -0.23300
C 	C 	0.22800 0.65000 0.96600 -0.00300
C 	C 	0.73000 0.25300 0.13900 0.59300
C 	C 	0.74000 0.25700 0.06800 -0.16600
C 	C 	0.90300 0.28900 0.03400 0.20600
C 	C 	0.59000 0.23000 0.03400 0.03000
C 	C 	0.06100 0.32200 0.06800 -0.23300
C 	C 	0.22800 0.35000 0.03400 -0.00300
C 	C 	0.73000 0.63900 0.24700 0.59300
C 	C 	0.74000 0.56800 0.24300 -0.16600
C 	C 	0.90300 0.53400 0.21100 0.20700
C 	C 	0.59000 0.53400 0.27000 0.03000
C 	C 	0.06100 0.56800 0.17800 -0.23400
C 	C 	0.22800 0.53400 0.15000 -0.00300
C 	C 	0.73000 0.36100 0.75300 0.59300
C 	C 	0.74000 0.43200 0.75700 -0.16600
C 	C 	0.90300 0.46600 0.78900 0.20700
C 	C 	0.59000 0.46600 0.73000 0.03000
C 	C 	0.06100 0.43200 0.82200 -0.23400
C 	C 	0.22800 0.46600 0.85000 -0.00300
C 	C 	0.27000 0.75300 0.36100 0.56600
C 	C 	0.26000 0.75700 0.43200 -0.14700
C 	C 	0.09700 0.78900 0.46600 -0.09600
C 	C 	0.41000 0.73000 0.46600 0.01300
C 	C 	0.93900 0.82200 0.43200 0.13600
C 	C 	0.77200 0.85000 0.46600 -0.04000
C 	C 	0.27000 0.24700 0.63900 0.56600
C 	C 	0.26000 0.24300 0.56800 -0.14700
C 	C 	0.09700 0.21100 0.53400 -0.09600
C 	C 	0.41000 0.27000 0.53400 0.01300
C 	C 	0.93900 0.17800 0.56800 0.13600
C 	C 	0.77200 0.15000 0.53400 -0.04000
C 	C 	0.27000 0.86100 0.74700 0.56600
C 	C 	0.26000 0.93200 0.74300 -0.14700
C 	C 	0.09700 0.96600 0.71100 -0.09500
C 	C 	0.41000 0.96600 0.77000 0.01300
C 	C 	0.93900 0.93200 0.67800 0.13500
C 	C 	0.77200 0.96600 0.65000 -0.04000
C 	C 	0.27000 0.13900 0.25300 0.56600
C 	C 	0.26000 0.06800 0.25700 -0.14700
C 	C 	0.09700 0.03400 0.28900 -0.09500
C 	C 	0.41000 0.03400 0.23000 0.01300
C 	C 	0.93900 0.06800 0.32200 0.13500
C 	C 	0.77200 0.03400 0.35000 -0.04000
C 	C 	0.27000 0.75300 0.63900 0.56600
C 	C 	0.26000 0.75700 0.56800 -0.14700
C 	C 	0.09700 0.78900 0.53400 -0.09600
C 	C 	0.41000 0.73000 0.53400 0.01300
C 	C 	0.93900 0.82200 0.56800 0.13600
C 	C 	0.77200 0.85000 0.53400 -0.04000
C 	C 	0.27000 0.24700 0.36100 0.56600
C 	C 	0.26000 0.24300 0.43200 -0.14700
C 	C 	0.09700 0.21100 0.46600 -0.09600
C 	C 	0.41000 0.27000 0.46600 0.01300
C 	C 	0.93900 0.17800 0.43200 0.13600
C 	C 	0.77200 0.15000 0.46600 -0.04000
C 	C 	0.27000 0.86100 0.25300 0.56600
C 	C 	0.26000 0.93200 0.25700 -0.14700
C 	C 	0.09700 0.96600 0.28900 -0.09500
C 	C 	0.41000 0.96600 0.23000 0.01300
C 	C 	0.93900 0.93200 0.32200 0.13500
C 	C 	0.77200 0.96600 0.35000 -0.04000
C 	C 	0.27000 0.13900 0.74700 0.56600
C 	C 	0.26000 0.06800 0.74300 -0.14700
C 	C 	0.09700 0.03400 0.71100 -0.09500
C 	C 	0.41000 0.03400 0.77000 0.01300
C 	C 	0.93900 0.06800 0.67800 0.13500
C 	C 	0.77200 0.03400 0.65000 -0.04000
C 	C 	0.73000 0.74700 0.13900 0.59300
C 	C 	0.74000 0.74300 0.06800 -0.16600
C 	C 	0.90300 0.71100 0.03400 0.20600
C 	C 	0.59000 0.77000 0.03400 0.03000
C 	C 	0.06100 0.67800 0.06800 -0.23300
C 	C 	0.22800 0.65000 0.03400 -0.00300
C 	C 	0.73000 0.25300 0.86100 0.59300
C 	C 	0.74000 0.25700 0.93200 -0.16600
C 	C 	0.90300 0.28900 0.96600 0.20600
C 	C 	0.59000 0.23000 0.96600 0.03000
C 	C 	0.06100 0.32200 0.93200 -0.23300
C 	C 	0.22800 0.35000 0.96600 -0.00300
C 	C 	0.73000 0.63900 0.75300 0.59300
C 	C 	0.74000 0.56800 0.75700 -0.16600
C 	C 	0.90300 0.53400 0.78900 0.20700
C 	C 	0.59000 0.53400 0.73000 0.03000
C 	C 	0.06100 0.56800 0.82200 -0.23400
C 	C 	0.22800 0.53400 0.85000 -0.00300
C 	C 	0.73000 0.36100 0.24700 0.59300
C 	C 	0.74000 0.43200 0.24300 -0.16600
C 	C 	0.90300 0.46600 0.21100 0.20700
C 	C 	0.59000 0.46600 0.27000 0.03000
C 	C 	0.06100 0.43200 0.17800 -0.23400
C 	C 	0.22800 0.46600 0.15000 -0.00300
O 	O 	0.88300 0.75200 0.82900 -0.66800
O 	O 	0.55300 0.74900 0.83500 -0.64900
O 	O 	0.88300 0.24800 0.17100 -0.66800
O 	O 	0.55300 0.25100 0.16500 -0.64900
O 	O 	0.88300 0.67100 0.25200 -0.66800
O 	O 	0.55300 0.66500 0.24900 -0.64900
O 	O 	0.88300 0.32900 0.74800 -0.66800
O 	O 	0.55300 0.33500 0.75100 -0.64900
O 	O 	0.11700 0.74800 0.32900 -0.82700
O 	O 	0.44700 0.75100 0.33500 -0.64800
O 	O 	0.11700 0.25200 0.67100 -0.82700
O 	O 	0.44700 0.24900 0.66500 -0.64800
O 	O 	0.11700 0.82900 0.75200 -0.82700
O 	O 	0.44700 0.83500 0.74900 -0.64800
O 	O 	0.11700 0.17100 0.24800 -0.82700
O 	O 	0.44700 0.16500 0.25100 -0.64800
O 	O 	0.11700 0.74800 0.67100 -0.82700
O 	O 	0.44700 0.75100 0.66500 -0.64800
O 	O 	0.11700 0.25200 0.32900 -0.82700
O 	O 	0.44700 0.24900 0.33500 -0.64800
O 	O 	0.11700 0.82900 0.24800 -0.82700
O 	O 	0.44700 0.83500 0.25100 -0.64800
O 	O 	0.11700 0.17100 0.75200 -0.82700
O 	O 	0.44700 0.16500 0.74900 -0.64800
O 	O 	0.88300 0.75200 0.17100 -0.66800
O 	O 	0.55300 0.74900 0.16500 -0.64900
O 	O 	0.88300 0.24800 0.82900 -0.66800
O 	O 	0.55300 0.25100 0.83500 -0.64900
O 	O 	0.88300 0.67100 0.74800 -0.66800
O 	O 	0.55300 0.66500 0.75100 -0.64900
O 	O 	0.88300 0.32900 0.25200 -0.66800
O 	O 	0.55300 0.33500 0.24900 -0.64900
O 	O 	0.71500 0.78100 0.71900 -0.75400
O 	O 	0.71500 0.21900 0.28100 -0.75400
O 	O 	0.71500 0.78100 0.28100 -0.75400
O 	O 	0.71500 0.21900 0.71900 -0.75400
O 	O 	0.28500 0.71900 0.21900 -0.82000
O 	O 	0.28500 0.28100 0.78100 -0.82000
O 	O 	0.28500 0.71900 0.78100 -0.82000
O 	O 	0.28500 0.28100 0.21900 -0.82000
