data_crystal

_cell_length_a 15.09370
_cell_length_b 17.32800
_cell_length_c 17.32800
_cell_angle_alpha 79.06560
_cell_angle_beta  64.18110
_cell_angle_gamma 64.18110

_symmetry_space_group_name_	'P 1'
_symmetry_space_group_name_H-M	'P 1'

loop_
_symmetry_equiv_pos_as_xyz
  x,y,z

loop_
_atom_site_label
_atom_site_type_symbol
_atom_site_fract_x
_atom_site_fract_y
_atom_site_fract_z
_atom_site_charge
Zn	Zn	0.75000 0.00000 -0.00000 1.22900
Zn	Zn	0.25000 0.00000 -0.00000 1.22600
Si	Si	-0.00000 0.00000 -0.00000 2.61200
Si	Si	0.50000 0.00000 -0.00000 2.93100
H 	H 	0.96670 0.85090 0.92850 0.12300
H 	H 	0.04680 0.70110 0.92370 -0.04700
H 	H 	0.05840 0.57620 0.87680 0.13500
H 	H 	0.74610 0.14910 0.07150 0.05300
H 	H 	0.67160 0.29890 0.07630 0.07500
H 	H 	0.51140 0.42380 0.12320 0.04400
H 	H 	0.89520 0.07150 0.85090 0.07600
H 	H 	0.97050 0.07630 0.70110 0.10900
H 	H 	0.93520 0.12320 0.57620 -0.01600
H 	H 	0.81760 0.92850 0.14910 0.05900
H 	H 	0.74790 0.92370 0.29890 0.07900
H 	H 	0.63460 0.87680 0.42380 0.03900
H 	H 	0.75390 0.92850 0.85090 0.06700
H 	H 	0.82840 0.92370 0.70110 0.09900
H 	H 	0.98860 0.87680 0.57620 -0.01200
H 	H 	0.53330 0.07150 0.14910 0.04500
H 	H 	0.45320 0.07630 0.29890 0.06700
H 	H 	0.44160 0.12320 0.42380 0.04200
H 	H 	0.68240 0.85090 0.07150 0.09300
H 	H 	0.75210 0.70110 0.07630 0.03800
H 	H 	0.86540 0.57620 0.12320 0.14800
H 	H 	0.60480 0.14910 0.92850 0.04600
H 	H 	0.52950 0.29890 0.92370 0.07000
H 	H 	0.56480 0.42380 0.87680 0.03700
H 	H 	0.03330 0.14910 0.07150 -0.02000
H 	H 	0.95320 0.29890 0.07630 0.22900
H 	H 	0.94160 0.42380 0.12320 -0.05300
H 	H 	0.25390 0.85090 0.92850 0.07200
H 	H 	0.32840 0.70110 0.92370 0.07000
H 	H 	0.48860 0.57620 0.87680 0.04000
H 	H 	0.10480 0.92850 0.14910 0.04600
H 	H 	0.02950 0.92370 0.29890 0.03700
H 	H 	0.06480 0.87680 0.42380 0.08900
H 	H 	0.18240 0.07150 0.85090 0.06300
H 	H 	0.25210 0.07630 0.70110 0.06400
H 	H 	0.36540 0.12320 0.57620 0.04400
H 	H 	0.24610 0.07150 0.14910 0.05200
H 	H 	0.17160 0.07630 0.29890 0.04600
H 	H 	0.01140 0.12320 0.42380 0.10600
H 	H 	0.46670 0.92850 0.85090 0.07300
H 	H 	0.54680 0.92370 0.70110 0.07700
H 	H 	0.55840 0.87680 0.57620 0.04100
H 	H 	0.31760 0.14910 0.92850 0.02300
H 	H 	0.24790 0.29890 0.92370 0.11400
H 	H 	0.13460 0.42380 0.87680 -0.06700
H 	H 	0.39520 0.85090 0.07150 0.07700
H 	H 	0.47050 0.70110 0.07630 0.07500
H 	H 	0.43520 0.57620 0.12320 0.04600
C 	C 	0.92270 0.81989 0.95811 0.05300
C 	C 	0.97187 0.73022 0.95524 0.22100
C 	C 	0.03370 0.54590 0.92770 -0.28700
C 	C 	0.70070 0.18011 0.04189 0.05700
C 	C 	0.65733 0.26978 0.04476 -0.09700
C 	C 	0.50730 0.45410 0.07230 -0.03400
C 	C 	0.88081 0.04189 0.81989 0.09100
C 	C 	0.92711 0.04476 0.73022 -0.13700
C 	C 	0.96140 0.07230 0.54590 0.21300
C 	C 	0.74259 0.95811 0.18011 0.17000
C 	C 	0.70209 0.95524 0.26978 -0.00300
C 	C 	0.57960 0.92770 0.45410 0.06600
C 	C 	0.79930 0.95811 0.81989 0.18000
C 	C 	0.84267 0.95524 0.73022 -0.06200
C 	C 	0.99270 0.92770 0.54590 0.26100
C 	C 	0.57730 0.04189 0.18011 0.05700
C 	C 	0.52813 0.04476 0.26978 -0.10000
C 	C 	0.46630 0.07230 0.45410 -0.03500
C 	C 	0.75741 0.81989 0.04189 0.00800
C 	C 	0.79791 0.73022 0.04476 0.01600
C 	C 	0.92040 0.54590 0.07230 -0.31100
C 	C 	0.61919 0.18011 0.95811 0.17400
C 	C 	0.57289 0.26978 0.95524 -0.00500
C 	C 	0.53860 0.45410 0.92770 0.06700
C 	C 	0.07730 0.18011 0.04189 0.18200
C 	C 	0.02813 0.26978 0.04476 -0.39500
C 	C 	0.96630 0.45410 0.07230 0.32500
C 	C 	0.29930 0.81989 0.95811 0.15800
C 	C 	0.34267 0.73022 0.95524 -0.00400
C 	C 	0.49270 0.54590 0.92770 0.05800
C 	C 	0.11919 0.95811 0.18011 0.14900
C 	C 	0.07289 0.95524 0.26978 0.04900
C 	C 	0.03860 0.92770 0.45410 -0.14000
C 	C 	0.25741 0.04189 0.81989 0.05700
C 	C 	0.29791 0.04476 0.73022 -0.09700
C 	C 	0.42040 0.07230 0.54590 -0.03900
C 	C 	0.20070 0.04189 0.18011 0.02600
C 	C 	0.15733 0.04476 0.26978 -0.05400
C 	C 	0.00730 0.07230 0.45410 -0.28700
C 	C 	0.42270 0.95811 0.81989 0.16400
C 	C 	0.47187 0.95524 0.73022 -0.00400
C 	C 	0.53370 0.92770 0.54590 0.06000
C 	C 	0.24259 0.18011 0.95811 0.24100
C 	C 	0.20209 0.26978 0.95524 -0.13200
C 	C 	0.07960 0.45410 0.92770 0.34800
C 	C 	0.38081 0.81989 0.04189 0.05800
C 	C 	0.42711 0.73022 0.04476 -0.09300
C 	C 	0.46140 0.54590 0.07230 -0.04000
C 	C 	0.90731 0.68538 -0.00000 -0.19200
C 	C 	0.95514 0.58972 -0.00000 0.23500
C 	C 	0.59269 0.31462 -0.00000 -0.02600
C 	C 	0.54486 0.41028 -0.00000 -0.09500
C 	C 	0.90731 0.00000 0.68538 0.07400
C 	C 	0.95514 -0.00000 0.58972 -0.23300
C 	C 	0.59269 0.00000 0.31462 -0.02300
C 	C 	0.54486 0.00000 0.41028 -0.09300
C 	C 	0.09269 0.31462 -0.00000 0.17900
C 	C 	0.04486 0.41028 -0.00000 -0.44300
C 	C 	0.40731 0.68538 -0.00000 -0.02400
C 	C 	0.45514 0.58972 -0.00000 -0.08900
C 	C 	0.09269 0.00000 0.31462 -0.12100
C 	C 	0.04486 0.00000 0.41028 0.05300
C 	C 	0.40731 0.00000 0.68538 -0.02200
C 	C 	0.45514 -0.00000 0.58972 -0.09000
N 	N 	0.81787 0.86426 -0.00000 -0.20500
N 	N 	0.68213 0.13574 -0.00000 -0.27600
N 	N 	0.81787 0.00000 0.86426 -0.24200
N 	N 	0.68213 0.00000 0.13574 -0.27300
N 	N 	0.18213 0.13574 -0.00000 -0.31800
N 	N 	0.31787 0.86426 -0.00000 -0.23800
N 	N 	0.18213 0.00000 0.13574 -0.27400
N 	N 	0.31787 0.00000 0.86426 -0.24100
F 	F 	0.92723 0.05492 0.09062 -0.68200
F 	F 	0.07277 0.94508 0.90938 -0.61200
F 	F 	0.01785 0.90938 0.05492 -0.69800
F 	F 	0.98215 0.09062 0.94508 -0.58900
F 	F 	0.42723 0.09062 0.05492 -0.78100
F 	F 	0.57277 0.90938 0.94508 -0.63500
F 	F 	0.51785 0.05492 0.90938 -0.71300
F 	F 	0.48215 0.94508 0.09062 -0.67900
F 	F 	0.88660 0.00000 -0.00000 -0.85300
F 	F 	0.61340 0.00000 -0.00000 -0.92200
F 	F 	0.11340 0.00000 -0.00000 -0.89900
F 	F 	0.38660 0.00000 -0.00000 -0.92400
