data_crystal

_cell_length_a 7.10620
_cell_length_b 9.73670
_cell_length_c 9.85900
_cell_angle_alpha 60.40950
_cell_angle_beta  84.15150
_cell_angle_gamma 78.09110

_symmetry_space_group_name_	'P 1'
_symmetry_space_group_name_H-M	'P 1'

loop_
_symmetry_equiv_pos_as_xyz
  x,y,z

loop_
_atom_site_label
_atom_site_type_symbol
_atom_site_fract_x
_atom_site_fract_y
_atom_site_fract_z
_atom_site_charge
Fe	Fe	0.43161 0.35685 0.67690 1.16600
Fe	Fe	0.56839 0.96625 0.67690 1.17900
Fe	Fe	-0.00000 0.33639 0.32722 1.08400
H 	H 	0.28410 0.15710 0.09200 0.06200
H 	H 	0.25150 0.75380 0.49880 0.03100
H 	H 	0.21100 0.75850 0.09340 0.03900
H 	H 	0.71590 0.75090 0.09200 0.05200
H 	H 	0.74850 0.74740 0.49880 0.06500
H 	H 	0.78900 0.14810 0.09340 0.12000
C 	C 	0.27430 0.96820 0.30900 0.02500
C 	C 	0.21560 0.73180 0.30980 -0.09900
C 	C 	0.25580 0.96670 0.06780 0.01600
C 	C 	0.27330 0.04920 0.14720 -0.16900
C 	C 	0.28270 0.04380 0.89440 0.23900
C 	C 	0.24770 0.80880 0.39040 -0.03100
C 	C 	0.17680 0.56500 0.39500 0.35000
C 	C 	0.32140 0.04510 0.39920 0.22500
C 	C 	0.22530 0.81110 0.14800 -0.02900
C 	C 	0.72570 0.72280 0.30900 -0.03900
C 	C 	0.78440 0.95840 0.30980 0.08500
C 	C 	0.74420 0.96550 0.06780 0.07200
C 	C 	0.72670 0.80360 0.14720 -0.03500
C 	C 	0.71730 0.06180 0.89440 0.24900
C 	C 	0.75230 0.80080 0.39040 -0.03300
C 	C 	0.82320 0.04000 0.39500 0.22900
C 	C 	0.67860 0.55570 0.39920 0.36100
C 	C 	0.77470 0.04090 0.14800 -0.16900
O 	O 	0.17460 0.49220 0.54340 -0.44300
O 	O 	0.39870 0.95200 0.52980 -0.38000
O 	O 	0.28410 0.19610 0.33900 -0.39500
O 	O 	0.25780 0.19400 0.81640 -0.43900
O 	O 	0.14560 0.50570 0.31300 -0.45900
O 	O 	0.33250 0.95330 0.83560 -0.37300
O 	O 	0.82540 0.96440 0.54340 -0.31500
O 	O 	0.60130 0.51820 0.52980 -0.42100
O 	O 	0.71590 0.46490 0.33900 -0.37000
O 	O 	0.74220 0.98960 0.81640 -0.35200
O 	O 	0.85440 0.18130 0.31300 -0.35000
O 	O 	0.66750 0.21110 0.83560 -0.37900
O 	O 	0.50000 0.23620 0.52760 -0.36900
