data_crystal

_cell_length_a 10.20900
_cell_length_b 13.63600
_cell_length_c 14.12400
_cell_angle_alpha 91.56800
_cell_angle_beta  90.00000
_cell_angle_gamma 90.00000

_symmetry_space_group_name_	'P 1'
_symmetry_space_group_name_H-M	'P 1'

loop_
_symmetry_equiv_pos_as_xyz
  x,y,z

loop_
_atom_site_label
_atom_site_type_symbol
_atom_site_fract_x
_atom_site_fract_y
_atom_site_fract_z
_atom_site_charge
Zn	Zn	0.91487 0.33746 0.32673 1.18400
Zn	Zn	0.49603 0.30791 0.65462 1.18300
Zn	Zn	0.41487 0.16254 0.17327 1.18400
Zn	Zn	0.99603 0.19209 0.84538 1.18300
Zn	Zn	0.08513 0.66254 0.67327 1.18400
Zn	Zn	0.50397 0.69209 0.34538 1.18300
Zn	Zn	0.58513 0.83746 0.82673 1.18500
Zn	Zn	0.00397 0.80791 0.15462 1.18400
H 	H 	0.08890 0.26320 0.47640 -0.00600
H 	H 	0.70440 0.24720 0.81100 -0.01700
H 	H 	0.70660 0.31490 0.47820 0.00700
H 	H 	0.32230 0.53080 0.29110 -0.00200
H 	H 	0.70850 0.18870 0.23720 -0.01500
H 	H 	0.70180 0.52590 0.35030 0.01000
H 	H 	0.58890 0.23680 0.02360 -0.00500
H 	H 	0.20440 0.25280 0.68900 -0.01700
H 	H 	0.20660 0.18510 0.02180 0.00800
H 	H 	0.82230 0.96920 0.20890 0.00100
H 	H 	0.20850 0.31130 0.26280 -0.01500
H 	H 	0.20180 0.97410 0.14970 0.00600
H 	H 	0.91110 0.73680 0.52360 -0.00600
H 	H 	0.29560 0.75280 0.18900 -0.01700
H 	H 	0.29340 0.68510 0.52180 0.00700
H 	H 	0.67770 0.46920 0.70890 -0.00200
H 	H 	0.29150 0.81130 0.76280 -0.01500
H 	H 	0.29820 0.47410 0.64970 0.01000
H 	H 	0.41110 0.76320 0.97640 -0.00500
H 	H 	0.79560 0.74720 0.31100 -0.01700
H 	H 	0.79340 0.81490 0.97820 0.00800
H 	H 	0.17770 0.03080 0.79110 0.00100
H 	H 	0.79150 0.68870 0.73720 -0.01500
H 	H 	0.79820 0.02590 0.85030 0.00600
C 	C 	0.00950 0.26610 0.51140 0.09600
C 	C 	0.90120 0.25010 0.64760 0.11900
C 	C 	0.74800 0.25210 0.75190 0.08800
C 	C 	0.78220 0.27530 0.60430 0.00700
C 	C 	0.78460 0.29710 0.51020 -0.00800
C 	C 	0.40180 0.49460 0.29090 0.08600
C 	C 	0.51110 0.35540 0.26250 0.11300
C 	C 	0.66440 0.24880 0.25040 0.09000
C 	C 	0.62910 0.39820 0.29450 0.00800
C 	C 	0.62530 0.49420 0.32640 -0.01400
C 	C 	0.50950 0.23390 0.98860 0.09300
C 	C 	0.40120 0.24990 0.85240 0.12000
C 	C 	0.24800 0.24790 0.74810 0.08800
C 	C 	0.28220 0.22470 0.89570 0.00800
C 	C 	0.28460 0.20290 0.98980 -0.01000
C 	C 	0.90180 0.00540 0.20910 0.08100
C 	C 	0.01110 0.14460 0.23750 0.11800
C 	C 	0.16440 0.25120 0.24960 0.09000
C 	C 	0.12910 0.10180 0.20550 0.00600
C 	C 	0.12530 0.00580 0.17360 -0.00700
C 	C 	0.99050 0.73390 0.48860 0.09600
C 	C 	0.09880 0.74990 0.35240 0.11900
C 	C 	0.25200 0.74790 0.24810 0.08800
C 	C 	0.21780 0.72470 0.39570 0.00700
C 	C 	0.21540 0.70290 0.48980 -0.00800
C 	C 	0.59820 0.50540 0.70910 0.08600
C 	C 	0.48890 0.64460 0.73750 0.11300
C 	C 	0.33560 0.75120 0.74960 0.09000
C 	C 	0.37090 0.60180 0.70550 0.00800
C 	C 	0.37470 0.50580 0.67360 -0.01400
C 	C 	0.49050 0.76610 0.01140 0.09300
C 	C 	0.59880 0.75010 0.14760 0.12000
C 	C 	0.75200 0.75210 0.25190 0.08800
C 	C 	0.71780 0.77530 0.10430 0.00800
C 	C 	0.71540 0.79710 0.01020 -0.01000
C 	C 	0.09820 0.99460 0.79090 0.08100
C 	C 	0.98890 0.85540 0.76250 0.11800
C 	C 	0.83560 0.74880 0.75040 0.09000
C 	C 	0.87090 0.89820 0.79450 0.00600
C 	C 	0.87470 0.99420 0.82640 -0.00700
Br	Br	0.00700 0.49529 0.32341 -0.49700
Br	Br	0.40893 0.27136 0.50410 -0.50500
Br	Br	0.50700 0.00471 0.17659 -0.49900
Br	Br	0.90893 0.22864 0.99590 -0.50600
Br	Br	0.99300 0.50471 0.67659 -0.49700
Br	Br	0.59107 0.72864 0.49590 -0.50500
Br	Br	0.49300 0.99529 0.82341 -0.49900
Br	Br	0.09107 0.77136 0.00410 -0.50600
N 	N 	0.89970 0.29280 0.46400 -0.25700
N 	N 	0.01550 0.24360 0.60250 -0.14900
N 	N 	0.87900 0.23610 0.74210 -0.28500
N 	N 	0.68510 0.27510 0.67280 -0.27300
N 	N 	0.51060 0.54210 0.32290 -0.25500
N 	N 	0.39630 0.40200 0.25920 -0.15100
N 	N 	0.53490 0.26030 0.23430 -0.28500
N 	N 	0.72650 0.32810 0.28650 -0.27100
N 	N 	0.39970 0.20720 0.03600 -0.25600
N 	N 	0.51550 0.25640 0.89750 -0.15000
N 	N 	0.37900 0.26390 0.75790 -0.28500
N 	N 	0.18510 0.22490 0.82720 -0.27300
N 	N 	0.01060 0.95790 0.17710 -0.25700
N 	N 	0.89630 0.09800 0.24080 -0.15300
N 	N 	0.03490 0.23970 0.26570 -0.28500
N 	N 	0.22650 0.17190 0.21350 -0.27000
N 	N 	0.10030 0.70720 0.53600 -0.25700
N 	N 	0.98450 0.75640 0.39750 -0.14900
N 	N 	0.12100 0.76390 0.25790 -0.28500
N 	N 	0.31490 0.72490 0.32720 -0.27300
N 	N 	0.48940 0.45790 0.67710 -0.25500
N 	N 	0.60370 0.59800 0.74080 -0.15100
N 	N 	0.46510 0.73970 0.76570 -0.28500
N 	N 	0.27350 0.67190 0.71350 -0.27100
N 	N 	0.60030 0.79280 0.96400 -0.25600
N 	N 	0.48450 0.74360 0.10250 -0.15000
N 	N 	0.62100 0.73610 0.24210 -0.28500
N 	N 	0.81490 0.77510 0.17280 -0.27300
N 	N 	0.98940 0.04210 0.82290 -0.25700
N 	N 	0.10370 0.90200 0.75920 -0.15300
N 	N 	0.96510 0.76030 0.73430 -0.28500
N 	N 	0.77350 0.82810 0.78650 -0.27000
