data_crystal

_cell_length_a 5.61370
_cell_length_b 17.14990
_cell_length_c 26.37690
_cell_angle_alpha 90.00000
_cell_angle_beta  90.00000
_cell_angle_gamma 96.82000

_symmetry_space_group_name_	'P 1'
_symmetry_space_group_name_H-M	'P 1'

loop_
_symmetry_equiv_pos_as_xyz
  x,y,z

loop_
_atom_site_label
_atom_site_type_symbol
_atom_site_fract_x
_atom_site_fract_y
_atom_site_fract_z
_atom_site_charge
Zn	Zn	0.10949 0.57242 0.52830 1.21400
Zn	Zn	0.89051 0.92758 0.02830 1.21300
Zn	Zn	0.89051 0.42758 0.47170 1.21400
Zn	Zn	0.10949 0.07242 0.97170 1.21300
H 	H 	0.47170 0.89690 0.10010 0.00600
H 	H 	0.39630 0.83220 0.17720 0.12800
H 	H 	0.98670 0.72230 0.15410 0.13100
H 	H 	0.04750 0.79080 0.07860 0.00100
H 	H 	0.12300 0.57430 0.26250 0.07200
H 	H 	0.06870 0.51400 0.34230 0.04500
H 	H 	0.05090 0.72050 0.42060 0.04800
H 	H 	0.08790 0.78310 0.34190 0.07700
H 	H 	0.52830 0.60310 0.60010 0.00600
H 	H 	0.60370 0.66780 0.67720 0.12800
H 	H 	0.01330 0.77770 0.65410 0.13200
H 	H 	0.95250 0.70920 0.57860 -0.00100
H 	H 	0.87700 0.92570 0.76250 0.07100
H 	H 	0.93130 0.98600 0.84230 0.04400
H 	H 	0.94910 0.77950 0.92060 0.04700
H 	H 	0.91210 0.71690 0.84190 0.07600
H 	H 	0.52830 0.10310 0.89990 0.00600
H 	H 	0.60370 0.16780 0.82280 0.12800
H 	H 	0.01330 0.27770 0.84590 0.13100
H 	H 	0.95250 0.20920 0.92140 0.00100
H 	H 	0.87700 0.42570 0.73750 0.07200
H 	H 	0.93130 0.48600 0.65770 0.04500
H 	H 	0.94910 0.27950 0.57940 0.04800
H 	H 	0.91210 0.21690 0.65810 0.07700
H 	H 	0.47170 0.39690 0.39990 0.00600
H 	H 	0.39630 0.33220 0.32280 0.12800
H 	H 	0.98670 0.22230 0.34590 0.13200
H 	H 	0.04750 0.29080 0.42140 -0.00100
H 	H 	0.12300 0.07430 0.23750 0.07100
H 	H 	0.06870 0.01400 0.15770 0.04400
H 	H 	0.05090 0.22050 0.07940 0.04700
H 	H 	0.08790 0.28310 0.15810 0.07600
C 	C 	0.57870 0.86190 0.11172 0.11600
C 	C 	0.53270 0.82350 0.15761 -0.20100
C 	C 	0.68860 0.77260 0.17432 0.21600
C 	C 	0.88100 0.75880 0.14415 -0.20400
C 	C 	0.91470 0.79950 0.09932 0.11200
C 	C 	0.45220 0.68110 0.23031 0.21700
C 	C 	0.42620 0.64420 0.28075 -0.03500
C 	C 	0.59580 0.66440 0.31919 -0.00100
C 	C 	0.79540 0.72110 0.30982 -0.03100
C 	C 	0.83250 0.75730 0.25939 0.20400
C 	C 	0.23440 0.58850 0.28902 -0.04700
C 	C 	0.20230 0.55250 0.33679 0.01800
C 	C 	0.36240 0.57220 0.37584 -0.11500
C 	C 	0.56840 0.62710 0.36783 0.09300
C 	C 	0.75160 0.64730 0.40461 -0.11500
C 	C 	0.93660 0.70550 0.39481 0.01800
C 	C 	0.95960 0.74280 0.34783 -0.06200
C 	C 	0.28180 0.54080 0.42707 0.39100
C 	C 	0.78440 0.59840 0.45094 0.39600
C 	C 	0.42130 0.63810 0.61172 0.11700
C 	C 	0.46730 0.67650 0.65761 -0.20200
C 	C 	0.31140 0.72740 0.67432 0.21700
C 	C 	0.11900 0.74120 0.64415 -0.20600
C 	C 	0.08530 0.70050 0.59932 0.11700
C 	C 	0.54780 0.81890 0.73031 0.21800
C 	C 	0.57380 0.85580 0.78075 -0.03600
C 	C 	0.40420 0.83560 0.81919 -0.00000
C 	C 	0.20460 0.77890 0.80982 -0.03200
C 	C 	0.16750 0.74270 0.75939 0.20700
C 	C 	0.76560 0.91150 0.78902 -0.04700
C 	C 	0.79770 0.94750 0.83679 0.01800
C 	C 	0.63760 0.92780 0.87584 -0.11400
C 	C 	0.43160 0.87290 0.86783 0.09300
C 	C 	0.24840 0.85270 0.90461 -0.11500
C 	C 	0.06340 0.79450 0.89481 0.01900
C 	C 	0.04040 0.75720 0.84783 -0.06000
C 	C 	0.71820 0.95920 0.92707 0.39100
C 	C 	0.21560 0.90160 0.95094 0.39600
C 	C 	0.42130 0.13810 0.88828 0.11600
C 	C 	0.46730 0.17650 0.84239 -0.20100
C 	C 	0.31140 0.22740 0.82568 0.21600
C 	C 	0.11900 0.24120 0.85585 -0.20400
C 	C 	0.08530 0.20050 0.90068 0.11200
C 	C 	0.54780 0.31890 0.76969 0.21700
C 	C 	0.57380 0.35580 0.71925 -0.03500
C 	C 	0.40420 0.33560 0.68081 -0.00100
C 	C 	0.20460 0.27890 0.69018 -0.03100
C 	C 	0.16750 0.24270 0.74061 0.20400
C 	C 	0.76560 0.41150 0.71098 -0.04700
C 	C 	0.79770 0.44750 0.66321 0.01800
C 	C 	0.63760 0.42780 0.62416 -0.11500
C 	C 	0.43160 0.37290 0.63217 0.09300
C 	C 	0.24840 0.35270 0.59539 -0.11500
C 	C 	0.06340 0.29450 0.60519 0.01800
C 	C 	0.04040 0.25720 0.65217 -0.06200
C 	C 	0.71820 0.45920 0.57293 0.39100
C 	C 	0.21560 0.40160 0.54906 0.39600
C 	C 	0.57870 0.36190 0.38828 0.11700
C 	C 	0.53270 0.32350 0.34239 -0.20200
C 	C 	0.68860 0.27260 0.32568 0.21700
C 	C 	0.88100 0.25880 0.35585 -0.20600
C 	C 	0.91470 0.29950 0.40068 0.11700
C 	C 	0.45220 0.18110 0.26969 0.21800
C 	C 	0.42620 0.14420 0.21925 -0.03600
C 	C 	0.59580 0.16440 0.18081 -0.00000
C 	C 	0.79540 0.22110 0.19018 -0.03200
C 	C 	0.83250 0.25730 0.24061 0.20700
C 	C 	0.23440 0.08850 0.21098 -0.04700
C 	C 	0.20230 0.05250 0.16321 0.01800
C 	C 	0.36240 0.07220 0.12416 -0.11400
C 	C 	0.56840 0.12710 0.13217 0.09300
C 	C 	0.75160 0.14730 0.09539 -0.11500
C 	C 	0.93660 0.20550 0.10519 0.01900
C 	C 	0.95960 0.24280 0.15217 -0.06000
C 	C 	0.28180 0.04080 0.07293 0.39100
C 	C 	0.78440 0.09840 0.04906 0.39600
N 	N 	0.76900 0.85090 0.08346 -0.26400
N 	N 	0.65680 0.73590 0.22312 -0.19000
N 	N 	0.23100 0.64910 0.58346 -0.26400
N 	N 	0.34320 0.76410 0.72312 -0.19100
N 	N 	0.23100 0.14910 0.91654 -0.26400
N 	N 	0.34320 0.26410 0.77688 -0.19000
N 	N 	0.76900 0.35090 0.41654 -0.26400
N 	N 	0.65680 0.23590 0.27688 -0.19100
O 	O 	0.30210 0.58903 0.46379 -0.45100
O 	O 	0.18160 0.47165 0.42854 -0.45300
O 	O 	0.74860 0.52545 0.44509 -0.46700
O 	O 	0.86870 0.63347 0.48978 -0.43300
O 	O 	0.31120 0.66650 0.19617 -0.22400
O 	O 	0.00310 0.80450 0.24899 -0.21200
O 	O 	0.69790 0.91097 0.96379 -0.45100
O 	O 	0.81840 0.02835 0.92854 -0.45400
O 	O 	0.25140 0.97455 0.94509 -0.46600
O 	O 	0.13130 0.86653 0.98978 -0.43100
O 	O 	0.68880 0.83350 0.69617 -0.22400
O 	O 	0.99690 0.69550 0.74899 -0.21400
O 	O 	0.69790 0.41097 0.53621 -0.45100
O 	O 	0.81840 0.52835 0.57146 -0.45300
O 	O 	0.25140 0.47455 0.55491 -0.46700
O 	O 	0.13130 0.36653 0.51022 -0.43300
O 	O 	0.68880 0.33350 0.80383 -0.22400
O 	O 	0.99690 0.19550 0.75101 -0.21200
O 	O 	0.30210 0.08903 0.03621 -0.45100
O 	O 	0.18160 0.97165 0.07146 -0.45400
O 	O 	0.74860 0.02545 0.05491 -0.46600
O 	O 	0.86870 0.13347 0.01022 -0.43100
O 	O 	0.31120 0.16650 0.30383 -0.22400
O 	O 	0.00310 0.30450 0.25101 -0.21400
