data_crystal

_cell_length_a 5.63640
_cell_length_b 18.88630
_cell_length_c 25.30100
_cell_angle_alpha 90.00000
_cell_angle_beta  90.00000
_cell_angle_gamma 95.47000

_symmetry_space_group_name_	'P 1'
_symmetry_space_group_name_H-M	'P 1'

loop_
_symmetry_equiv_pos_as_xyz
  x,y,z

loop_
_atom_site_label
_atom_site_type_symbol
_atom_site_fract_x
_atom_site_fract_y
_atom_site_fract_z
_atom_site_charge
Zn	Zn	0.10300 0.56025 0.53332 1.21300
Zn	Zn	0.89700 0.93975 0.03332 1.21200
Zn	Zn	0.89700 0.43975 0.46668 1.21300
Zn	Zn	0.10300 0.06025 0.96668 1.21200
H 	H 	0.47530 0.91060 0.10740 0.00500
H 	H 	0.39080 0.84530 0.18420 0.12800
H 	H 	0.98700 0.74540 0.15830 0.13700
H 	H 	0.05840 0.81550 0.08430 -0.00200
H 	H 	0.12700 0.60080 0.25690 0.06900
H 	H 	0.07280 0.53440 0.33480 0.04400
H 	H 	0.02950 0.70740 0.43250 0.04600
H 	H 	0.06710 0.77610 0.35580 0.06900
H 	H 	0.52470 0.58940 0.60740 0.00500
H 	H 	0.60920 0.65470 0.68420 0.12800
H 	H 	0.01300 0.75460 0.65830 0.13800
H 	H 	0.94160 0.68450 0.58430 -0.00400
H 	H 	0.87300 0.89920 0.75690 0.06900
H 	H 	0.92720 0.96560 0.83480 0.04400
H 	H 	0.97050 0.79260 0.93250 0.04500
H 	H 	0.93290 0.72390 0.85580 0.06800
H 	H 	0.52470 0.08940 0.89260 0.00500
H 	H 	0.60920 0.15470 0.81580 0.12800
H 	H 	0.01300 0.25460 0.84170 0.13700
H 	H 	0.94160 0.18450 0.91570 -0.00200
H 	H 	0.87300 0.39920 0.74310 0.06900
H 	H 	0.92720 0.46560 0.66520 0.04400
H 	H 	0.97050 0.29260 0.56750 0.04600
H 	H 	0.93290 0.22390 0.64420 0.06900
H 	H 	0.47530 0.41060 0.39260 0.00500
H 	H 	0.39080 0.34530 0.31580 0.12800
H 	H 	0.98700 0.24540 0.34170 0.13800
H 	H 	0.05840 0.31550 0.41570 -0.00400
H 	H 	0.12700 0.10080 0.24310 0.06900
H 	H 	0.07280 0.03440 0.16520 0.04400
H 	H 	0.02950 0.20740 0.06750 0.04500
H 	H 	0.06710 0.27610 0.14420 0.06800
C 	C 	0.58130 0.87740 0.11861 0.12000
C 	C 	0.52990 0.83900 0.16413 -0.20400
C 	C 	0.68730 0.79110 0.17976 0.22000
C 	C 	0.88300 0.78020 0.14909 -0.21200
C 	C 	0.92120 0.82130 0.10510 0.12400
C 	C 	0.45090 0.70220 0.23209 0.21400
C 	C 	0.42390 0.66110 0.28170 -0.03500
C 	C 	0.58870 0.67340 0.32322 0.00100
C 	C 	0.78470 0.72680 0.31817 -0.03700
C 	C 	0.82060 0.76720 0.26881 0.21400
C 	C 	0.23470 0.60950 0.28559 -0.04900
C 	C 	0.20340 0.57000 0.33210 0.01800
C 	C 	0.35730 0.58130 0.37428 -0.11200
C 	C 	0.56120 0.63220 0.37026 0.09100
C 	C 	0.73850 0.64400 0.40998 -0.11000
C 	C 	0.91850 0.69800 0.40451 0.01600
C 	C 	0.94110 0.73910 0.35871 -0.04700
C 	C 	0.27520 0.54480 0.42483 0.39100
C 	C 	0.77440 0.59290 0.45461 0.39000
C 	C 	0.41870 0.62260 0.61861 0.12100
C 	C 	0.47010 0.66100 0.66413 -0.20400
C 	C 	0.31270 0.70890 0.67976 0.22100
C 	C 	0.11700 0.71980 0.64909 -0.21300
C 	C 	0.07880 0.67870 0.60510 0.12700
C 	C 	0.54910 0.79780 0.73209 0.21400
C 	C 	0.57610 0.83890 0.78170 -0.03500
C 	C 	0.41130 0.82660 0.82322 0.00100
C 	C 	0.21530 0.77320 0.81817 -0.03700
C 	C 	0.17940 0.73280 0.76881 0.21400
C 	C 	0.76530 0.89050 0.78559 -0.04900
C 	C 	0.79660 0.93000 0.83210 0.01800
C 	C 	0.64270 0.91870 0.87428 -0.11200
C 	C 	0.43880 0.86780 0.87026 0.09100
C 	C 	0.26150 0.85600 0.90998 -0.11000
C 	C 	0.08150 0.80200 0.90451 0.01700
C 	C 	0.05890 0.76090 0.85871 -0.04600
C 	C 	0.72480 0.95520 0.92483 0.39200
C 	C 	0.22560 0.90710 0.95461 0.39000
C 	C 	0.41870 0.12260 0.88139 0.12000
C 	C 	0.47010 0.16100 0.83587 -0.20400
C 	C 	0.31270 0.20890 0.82024 0.22000
C 	C 	0.11700 0.21980 0.85091 -0.21200
C 	C 	0.07880 0.17870 0.89490 0.12400
C 	C 	0.54910 0.29780 0.76791 0.21400
C 	C 	0.57610 0.33890 0.71830 -0.03500
C 	C 	0.41130 0.32660 0.67678 0.00100
C 	C 	0.21530 0.27320 0.68183 -0.03700
C 	C 	0.17940 0.23280 0.73119 0.21400
C 	C 	0.76530 0.39050 0.71441 -0.04900
C 	C 	0.79660 0.43000 0.66790 0.01800
C 	C 	0.64270 0.41870 0.62572 -0.11200
C 	C 	0.43880 0.36780 0.62974 0.09100
C 	C 	0.26150 0.35600 0.59002 -0.11000
C 	C 	0.08150 0.30200 0.59549 0.01600
C 	C 	0.05890 0.26090 0.64129 -0.04700
C 	C 	0.72480 0.45520 0.57517 0.39100
C 	C 	0.22560 0.40710 0.54539 0.39000
C 	C 	0.58130 0.37740 0.38139 0.12100
C 	C 	0.52990 0.33900 0.33587 -0.20400
C 	C 	0.68730 0.29110 0.32024 0.22100
C 	C 	0.88300 0.28020 0.35091 -0.21300
C 	C 	0.92120 0.32130 0.39490 0.12700
C 	C 	0.45090 0.20220 0.26791 0.21400
C 	C 	0.42390 0.16110 0.21830 -0.03500
C 	C 	0.58870 0.17340 0.17678 0.00100
C 	C 	0.78470 0.22680 0.18183 -0.03700
C 	C 	0.82060 0.26720 0.23119 0.21400
C 	C 	0.23470 0.10950 0.21441 -0.04900
C 	C 	0.20340 0.07000 0.16790 0.01800
C 	C 	0.35730 0.08130 0.12572 -0.11200
C 	C 	0.56120 0.13220 0.12974 0.09100
C 	C 	0.73850 0.14400 0.09002 -0.11000
C 	C 	0.91850 0.19800 0.09549 0.01700
C 	C 	0.94110 0.23910 0.14129 -0.04600
C 	C 	0.27520 0.04480 0.07517 0.39200
C 	C 	0.77440 0.09290 0.04539 0.39000
N 	N 	0.77590 0.86945 0.08952 -0.26500
N 	N 	0.65120 0.75290 0.22903 -0.18900
N 	N 	0.22410 0.63055 0.58952 -0.26500
N 	N 	0.34880 0.74710 0.72903 -0.19000
N 	N 	0.22410 0.13055 0.91048 -0.26500
N 	N 	0.34880 0.24710 0.77097 -0.18900
N 	N 	0.77590 0.36945 0.41048 -0.26500
N 	N 	0.65120 0.25290 0.27097 -0.19000
O 	O 	0.29020 0.58200 0.46635 -0.45700
O 	O 	0.17860 0.48232 0.42084 -0.44900
O 	O 	0.74120 0.52770 0.44293 -0.46400
O 	O 	0.85490 0.61830 0.49715 -0.43600
O 	O 	0.31540 0.69422 0.19483 -0.22400
O 	O 	0.98740 0.81190 0.26188 -0.22000
O 	O 	0.70980 0.91800 0.96635 -0.45700
O 	O 	0.82140 0.01768 0.92084 -0.45000
O 	O 	0.25880 0.97230 0.94293 -0.46300
O 	O 	0.14510 0.88170 0.99715 -0.43500
O 	O 	0.68460 0.80578 0.69483 -0.22400
O 	O 	0.01260 0.68810 0.76188 -0.21900
O 	O 	0.70980 0.41800 0.53365 -0.45700
O 	O 	0.82140 0.51768 0.57916 -0.44900
O 	O 	0.25880 0.47230 0.55707 -0.46400
O 	O 	0.14510 0.38170 0.50285 -0.43600
O 	O 	0.68460 0.30578 0.80517 -0.22400
O 	O 	0.01260 0.18810 0.73812 -0.22000
O 	O 	0.29020 0.08200 0.03365 -0.45700
O 	O 	0.17860 0.98232 0.07916 -0.45000
O 	O 	0.74120 0.02770 0.05707 -0.46300
O 	O 	0.85490 0.11830 0.00285 -0.43500
O 	O 	0.31540 0.19422 0.30517 -0.22400
O 	O 	0.98740 0.31190 0.23812 -0.21900
