data_crystal

_cell_length_a 11.38870
_cell_length_b 13.74950
_cell_length_c 13.74950
_cell_angle_alpha 80.12390
_cell_angle_beta  65.53420
_cell_angle_gamma 65.53430

_symmetry_space_group_name_	'P 1'
_symmetry_space_group_name_H-M	'P 1'

loop_
_symmetry_equiv_pos_as_xyz
  x,y,z

loop_
_atom_site_label
_atom_site_type_symbol
_atom_site_fract_x
_atom_site_fract_y
_atom_site_fract_z
_atom_site_charge
Zn	Zn	0.36086 0.52706 0.44920 1.10900
Zn	Zn	0.83712 0.97294 0.05080 1.10600
Zn	Zn	0.38792 0.94920 0.47294 1.11000
Zn	Zn	0.31006 0.55080 0.02706 1.10900
Zn	Zn	0.63914 0.47294 0.55080 1.10900
Zn	Zn	0.16288 0.02706 0.94920 1.10600
Zn	Zn	0.61208 0.05080 0.52706 1.11000
Zn	Zn	0.68994 0.44920 0.97294 1.10900
H 	H 	0.67500 0.65700 0.57820 0.08900
H 	H 	0.56720 0.77330 0.61530 0.12900
H 	H 	0.68240 0.75320 0.49920 0.10200
H 	H 	0.30360 0.77400 0.42640 -0.12200
H 	H 	0.41020 0.84300 0.92180 0.08800
H 	H 	0.45580 0.72670 0.88470 0.12700
H 	H 	0.43480 0.74680 0.00080 0.09900
H 	H 	0.00400 0.72600 0.07360 -0.12200
H 	H 	0.83200 0.07820 0.34300 0.08000
H 	H 	0.84050 0.11530 0.22670 0.12000
H 	H 	0.93560 0.99920 0.24680 0.08600
H 	H 	0.57760 0.92640 0.22600 -0.12300
H 	H 	0.75320 0.42180 0.15700 0.08900
H 	H 	0.68250 0.38470 0.27330 0.12900
H 	H 	0.68160 0.50080 0.25320 0.10200
H 	H 	0.23000 0.57360 0.27400 -0.12200
H 	H 	0.32500 0.34300 0.42180 0.08900
H 	H 	0.43280 0.22670 0.38470 0.12900
H 	H 	0.31760 0.24680 0.50080 0.10200
H 	H 	0.69640 0.22600 0.57360 -0.12200
H 	H 	0.58980 0.15700 0.07820 0.08800
H 	H 	0.54420 0.27330 0.11530 0.12700
H 	H 	0.56520 0.25320 0.99920 0.09900
H 	H 	0.99600 0.27400 0.92640 -0.12200
H 	H 	0.16800 0.92180 0.65700 0.08000
H 	H 	0.15950 0.88470 0.77330 0.12000
H 	H 	0.06440 0.00080 0.75320 0.08600
H 	H 	0.42240 0.07360 0.77400 -0.12300
H 	H 	0.24680 0.57820 0.84300 0.08900
H 	H 	0.31750 0.61530 0.72670 0.12900
H 	H 	0.31840 0.49920 0.74680 0.10200
H 	H 	0.77000 0.42640 0.72600 -0.12200
C 	C 	0.62090 0.72470 0.55590 -0.57200
C 	C 	0.52470 0.70970 0.51710 0.18100
C 	C 	0.37213 0.73949 0.45465 0.06200
C 	C 	0.40150 0.77530 0.94410 -0.56400
C 	C 	0.25150 0.79030 0.98290 0.18000
C 	C 	0.06627 0.76051 0.04535 0.06200
C 	C 	0.84560 0.05590 0.27530 -0.53800
C 	C 	0.73440 0.01710 0.29030 0.17800
C 	C 	0.61162 0.95465 0.26051 0.06100
C 	C 	0.67680 0.44410 0.22470 -0.57200
C 	C 	0.54180 0.48290 0.20970 0.18100
C 	C 	0.32678 0.54535 0.23949 0.06200
C 	C 	0.37910 0.27530 0.44410 -0.57200
C 	C 	0.47530 0.29030 0.48290 0.18100
C 	C 	0.62787 0.26051 0.54535 0.06200
C 	C 	0.59850 0.22470 0.05590 -0.56400
C 	C 	0.74850 0.20970 0.01710 0.18000
C 	C 	0.93373 0.23949 0.95465 0.06200
C 	C 	0.15440 0.94410 0.72470 -0.53800
C 	C 	0.26560 0.98290 0.70970 0.17800
C 	C 	0.38838 0.04535 0.73949 0.06100
C 	C 	0.32320 0.55590 0.77530 -0.57200
C 	C 	0.45820 0.51710 0.79030 0.18100
C 	C 	0.67322 0.45465 0.76051 0.06200
N 	N 	0.41926 0.63668 0.47320 -0.30900
N 	N 	0.51917 0.61703 0.51383 -0.32300
N 	N 	0.43399 0.78951 0.48111 -0.34500
N 	N 	0.02914 0.86332 0.02680 -0.30800
N 	N 	0.15003 0.88297 0.98617 -0.32000
N 	N 	0.20461 0.71049 0.01889 -0.34600
N 	N 	0.55594 0.97320 0.36332 -0.31000
N 	N 	0.63620 0.01383 0.38297 -0.32000
N 	N 	0.72350 0.98111 0.21049 -0.34800
N 	N 	0.39246 0.52680 0.13668 -0.30900
N 	N 	0.53300 0.48617 0.11703 -0.32300
N 	N 	0.41510 0.51889 0.28951 -0.34500
N 	N 	0.58074 0.36332 0.52680 -0.30900
N 	N 	0.48083 0.38297 0.48617 -0.32300
N 	N 	0.56601 0.21049 0.51889 -0.34500
N 	N 	0.97086 0.13668 0.97320 -0.30800
N 	N 	0.84997 0.11703 0.01383 -0.32000
N 	N 	0.79539 0.28951 0.98111 -0.34600
N 	N 	0.44406 0.02680 0.63668 -0.31000
N 	N 	0.36380 0.98617 0.61703 -0.32000
N 	N 	0.27650 0.01889 0.78951 -0.34800
N 	N 	0.60754 0.47320 0.86332 -0.30900
N 	N 	0.46700 0.51383 0.88297 -0.32300
N 	N 	0.58490 0.48111 0.71049 -0.34500
