data_crystal

_cell_length_a 10.57870
_cell_length_b 10.57870
_cell_length_c 15.82800
_cell_angle_alpha 90.00000
_cell_angle_beta  90.00000
_cell_angle_gamma 104.37600

_symmetry_space_group_name_	'P 1'
_symmetry_space_group_name_H-M	'P 1'

loop_
_symmetry_equiv_pos_as_xyz
  x,y,z

loop_
_atom_site_label
_atom_site_type_symbol
_atom_site_fract_x
_atom_site_fract_y
_atom_site_fract_z
_atom_site_charge
Zn	Zn	0.12886 0.23752 0.92379 1.19600
Zn	Zn	0.44207 0.27871 0.94336 1.14400
Zn	Zn	0.87114 0.76248 0.42379 1.21000
Zn	Zn	0.55793 0.72129 0.44336 1.16500
Zn	Zn	0.76248 0.87114 0.57621 1.21000
Zn	Zn	0.72129 0.55793 0.55664 1.16300
Zn	Zn	0.23752 0.12886 0.07621 1.21600
Zn	Zn	0.27871 0.44207 0.05664 1.17600
H 	H 	0.50570 0.08050 0.71200 0.04000
H 	H 	0.25390 0.82990 0.54940 0.03900
H 	H 	0.11460 0.04620 0.71630 0.04600
H 	H 	0.49430 0.91950 0.21200 0.04500
H 	H 	0.74610 0.17010 0.04940 0.04900
H 	H 	0.88540 0.95380 0.21630 0.04500
H 	H 	0.91950 0.49430 0.78800 0.03900
H 	H 	0.17010 0.74610 0.95060 0.02700
H 	H 	0.95380 0.88540 0.78370 0.04400
H 	H 	0.08050 0.50570 0.28800 0.04400
H 	H 	0.82990 0.25390 0.45060 0.03500
H 	H 	0.04620 0.11460 0.28370 0.04200
C 	C 	0.31550 0.08910 0.71970 -0.10600
C 	C 	0.42230 0.05070 0.68980 0.00900
C 	C 	0.38930 0.95250 0.61520 -0.09000
C 	C 	0.26750 0.89670 0.58920 0.02800
C 	C 	0.15430 0.93990 0.62290 -0.09700
C 	C 	0.18450 0.02570 0.68840 0.03000
C 	C 	0.32900 0.17440 0.79150 0.30300
C 	C 	0.51000 0.90140 0.58330 0.37400
C 	C 	0.02900 0.89600 0.57720 0.36200
C 	C 	0.68450 0.91090 0.21970 -0.10400
C 	C 	0.57770 0.94930 0.18980 0.02000
C 	C 	0.61070 0.04750 0.11520 -0.08800
C 	C 	0.73250 0.10330 0.08920 0.03200
C 	C 	0.84570 0.06010 0.12290 -0.10000
C 	C 	0.81550 0.97430 0.18840 0.04200
C 	C 	0.67100 0.82560 0.29150 0.30400
C 	C 	0.49000 0.09860 0.08330 0.37400
C 	C 	0.97100 0.10400 0.07720 0.35600
C 	C 	0.91090 0.68450 0.78030 -0.11000
C 	C 	0.94930 0.57770 0.81020 0.01000
C 	C 	0.04750 0.61070 0.88480 -0.10100
C 	C 	0.10330 0.73250 0.91080 0.03200
C 	C 	0.06010 0.84570 0.87710 -0.10900
C 	C 	0.97430 0.81550 0.81160 0.03100
C 	C 	0.82560 0.67100 0.70850 0.30200
C 	C 	0.09860 0.49000 0.91670 0.37600
C 	C 	0.10400 0.97100 0.92280 0.36500
C 	C 	0.08910 0.31550 0.28030 -0.11000
C 	C 	0.05070 0.42230 0.31020 0.02400
C 	C 	0.95250 0.38930 0.38480 -0.10200
C 	C 	0.89670 0.26750 0.41080 0.03700
C 	C 	0.93990 0.15430 0.37710 -0.11300
C 	C 	0.02570 0.18450 0.31160 0.04700
C 	C 	0.17440 0.32900 0.20850 0.30300
C 	C 	0.90140 0.51000 0.41670 0.37700
C 	C 	0.89600 0.02900 0.42280 0.35700
O 	O 	0.25091 0.24609 0.80460 -0.44100
O 	O 	0.43129 0.17551 0.84233 -0.49100
O 	O 	0.61707 0.93693 0.61770 -0.49000
O 	O 	0.47487 0.82913 0.51860 -0.51900
O 	O 	0.94366 0.95314 0.60742 -0.45700
O 	O 	0.01113 0.80159 0.52910 -0.45300
O 	O 	0.74909 0.75391 0.30460 -0.43200
O 	O 	0.56871 0.82449 0.34233 -0.47300
O 	O 	0.38293 0.06307 0.11770 -0.47900
O 	O 	0.52513 0.17087 0.01860 -0.49000
O 	O 	0.05634 0.04686 0.10742 -0.43800
O 	O 	0.98887 0.19841 0.02910 -0.42800
O 	O 	0.75391 0.74909 0.69540 -0.43800
O 	O 	0.82449 0.56871 0.65767 -0.47700
O 	O 	0.06307 0.38293 0.88230 -0.50200
O 	O 	0.17087 0.52513 0.98140 -0.55100
O 	O 	0.04686 0.05634 0.89258 -0.47500
O 	O 	0.19841 0.98887 0.97090 -0.48400
O 	O 	0.24609 0.25091 0.19540 -0.43300
O 	O 	0.17551 0.43129 0.15767 -0.46200
O 	O 	0.93693 0.61707 0.38230 -0.48900
O 	O 	0.82913 0.47487 0.48140 -0.52100
O 	O 	0.95314 0.94366 0.39258 -0.45200
O 	O 	0.80159 0.01113 0.47090 -0.45800
O 	O 	0.28320 0.28320 -0.00000 -0.93400
O 	O 	0.71680 0.71680 0.50000 -0.97300
