data_crystal

_cell_length_a 11.56900
_cell_length_b 15.44700
_cell_length_c 21.19000
_cell_angle_alpha 76.79400
_cell_angle_beta  79.02500
_cell_angle_gamma 89.61500

_symmetry_space_group_name_	'P 1'
_symmetry_space_group_name_H-M	'P 1'

loop_
_symmetry_equiv_pos_as_xyz
  x,y,z

loop_
_atom_site_label
_atom_site_type_symbol
_atom_site_fract_x
_atom_site_fract_y
_atom_site_fract_z
_atom_site_charge
Zn	Zn	0.96485 0.47913 0.57266 1.22200
Zn	Zn	0.03515 0.52087 0.42734 1.22100
Zn	Zn	0.50000 0.50000 -0.00000 1.17100
H 	H 	0.31120 0.34830 0.43770 0.02600
H 	H 	0.43480 0.22940 0.43060 0.08300
H 	H 	0.26510 0.09790 0.61090 0.09100
H 	H 	0.15170 0.21780 0.62130 0.04100
H 	H 	0.29670 0.98690 0.53400 0.05800
H 	H 	0.55510 0.17600 0.58260 0.09000
H 	H 	0.67640 0.29500 0.58440 0.03300
H 	H 	0.83240 0.30540 0.39550 0.02900
H 	H 	0.71880 0.18060 0.39630 0.08400
H 	H 	0.72290 0.46070 0.64540 -0.02100
H 	H 	0.61440 0.46040 0.74480 0.12600
H 	H 	0.91030 0.52300 0.80050 0.13400
H 	H 	0.00590 0.52410 0.69480 -0.02100
H 	H 	0.69760 0.31690 0.83840 0.10500
H 	H 	0.59090 0.20710 0.93150 0.12400
H 	H 	0.24760 0.23220 0.13740 0.07400
H 	H 	0.25870 0.33150 0.22130 0.07700
H 	H 	0.68880 0.65170 0.56230 0.02700
H 	H 	0.56520 0.77060 0.56940 0.08400
H 	H 	0.73490 0.90210 0.38910 0.09000
H 	H 	0.84830 0.78220 0.37870 0.04000
H 	H 	0.70330 0.01310 0.46600 0.05900
H 	H 	0.44490 0.82400 0.41740 0.09000
H 	H 	0.32360 0.70500 0.41560 0.03200
H 	H 	0.16760 0.69460 0.60450 0.03000
H 	H 	0.28120 0.81940 0.60370 0.08600
H 	H 	0.27710 0.53930 0.35460 -0.02100
H 	H 	0.38560 0.53960 0.25520 0.12400
H 	H 	0.08970 0.47700 0.19950 0.12700
H 	H 	0.99410 0.47590 0.30520 -0.01900
H 	H 	0.30240 0.68310 0.16160 0.10500
H 	H 	0.40910 0.79290 0.06850 0.10700
H 	H 	0.75240 0.76780 0.86260 0.07800
H 	H 	0.74130 0.66850 0.77870 0.07900
C 	C 	0.13450 0.36940 0.53060 0.39500
C 	C 	0.21820 0.29480 0.52890 -0.12700
C 	C 	0.30270 0.29740 0.47350 0.06500
C 	C 	0.37600 0.22660 0.46900 -0.12700
C 	C 	0.36310 0.15180 0.52060 0.08100
C 	C 	0.27640 0.14980 0.57600 -0.13000
C 	C 	0.20730 0.21960 0.58170 0.06700
C 	C 	0.43530 0.07400 0.51280 -0.01300
C 	C 	0.37980 0.99260 0.51970 -0.04800
C 	C 	0.56000 0.08160 0.49330 -0.00800
C 	C 	0.62700 0.16430 0.49030 0.07900
C 	C 	0.61390 0.20050 0.54490 -0.12500
C 	C 	0.68490 0.27230 0.54580 0.06900
C 	C 	0.76770 0.31050 0.49060 -0.13500
C 	C 	0.77820 0.27760 0.43440 0.06700
C 	C 	0.70930 0.20400 0.43470 -0.12900
C 	C 	0.84850 0.38460 0.49300 0.41600
C 	C 	0.76200 0.47100 0.67870 0.16400
C 	C 	0.69700 0.47220 0.73690 -0.24800
C 	C 	0.74780 0.49010 0.78580 0.20400
C 	C 	0.86840 0.50900 0.76950 -0.23400
C 	C 	0.92470 0.50660 0.70690 0.17100
C 	C 	0.67640 0.49200 0.85350 -0.18800
C 	C 	0.63070 0.41610 0.89200 0.15200
C 	C 	0.65170 0.32950 0.87720 -0.10900
C 	C 	0.59400 0.27260 0.92850 0.02500
C 	C 	0.48500 0.32450 0.96230 0.08800
C 	C 	0.40300 0.28740 0.01660 -0.00200
C 	C 	0.33040 0.20280 0.01500 -0.16400
C 	C 	0.22870 0.19020 0.99180 0.32200
C 	C 	0.18730 0.10460 0.99540 0.17600
C 	C 	0.24770 0.03150 0.02220 0.18700
C 	C 	0.34940 0.04410 0.04550 0.15500
C 	C 	0.39080 0.12970 0.04180 0.27000
C 	C 	0.40100 0.32230 0.08030 0.08700
C 	C 	0.29600 0.28350 0.13330 -0.02900
C 	C 	0.28700 0.34300 0.17500 -0.09700
C 	C 	0.66610 0.57340 0.87010 0.13500
C 	C 	0.86550 0.63060 0.46940 0.39500
C 	C 	0.78180 0.70520 0.47110 -0.12600
C 	C 	0.69730 0.70260 0.52650 0.06400
C 	C 	0.62400 0.77340 0.53100 -0.12400
C 	C 	0.63690 0.84820 0.47940 0.07800
C 	C 	0.72360 0.85020 0.42400 -0.12800
C 	C 	0.79270 0.78040 0.41830 0.06600
C 	C 	0.56470 0.92600 0.48720 -0.00600
C 	C 	0.62020 0.00740 0.48030 -0.05700
C 	C 	0.44000 0.91840 0.50670 -0.01300
C 	C 	0.37300 0.83570 0.50970 0.08200
C 	C 	0.38610 0.79950 0.45510 -0.12700
C 	C 	0.31510 0.72770 0.45420 0.07000
C 	C 	0.23230 0.68950 0.50940 -0.13700
C 	C 	0.22180 0.72240 0.56560 0.06900
C 	C 	0.29070 0.79600 0.56530 -0.13100
C 	C 	0.15150 0.61540 0.50700 0.41600
C 	C 	0.23800 0.52900 0.32130 0.16200
C 	C 	0.30300 0.52780 0.26310 -0.24600
C 	C 	0.25220 0.50990 0.21420 0.20100
C 	C 	0.13160 0.49100 0.23050 -0.23000
C 	C 	0.07530 0.49340 0.29310 0.16400
C 	C 	0.32360 0.50800 0.14650 -0.19200
C 	C 	0.36930 0.58390 0.10800 0.15000
C 	C 	0.34830 0.67050 0.12280 -0.11800
C 	C 	0.40600 0.72740 0.07150 0.03400
C 	C 	0.51500 0.67550 0.03770 0.00800
C 	C 	0.59700 0.71260 0.98340 0.06800
C 	C 	0.66960 0.79720 0.98500 -0.10600
C 	C 	0.77130 0.80980 0.00820 0.26700
C 	C 	0.81270 0.89540 0.00460 0.11100
C 	C 	0.75230 0.96850 0.97780 0.26300
C 	C 	0.65060 0.95590 0.95450 0.15500
C 	C 	0.60920 0.87030 0.95820 0.27400
C 	C 	0.59900 0.67770 0.91970 0.08500
C 	C 	0.70400 0.71650 0.86670 -0.02300
C 	C 	0.71300 0.65700 0.82500 -0.09500
C 	C 	0.33390 0.42660 0.12990 0.13000
N 	N 	0.87760 0.48320 0.66370 -0.28800
N 	N 	0.55480 0.40450 0.95280 -0.27100
N 	N 	0.40340 0.40970 0.07380 -0.29200
N 	N 	0.12240 0.51680 0.33630 -0.28700
N 	N 	0.44520 0.59550 0.04720 -0.27700
N 	N 	0.59660 0.59030 0.92620 -0.27800
O 	O 	0.07800 0.37790 0.58480 -0.43500
O 	O 	0.12680 0.41910 0.47530 -0.47400
O 	O 	0.90510 0.42840 0.43859 -0.46100
O 	O 	0.85430 0.39620 0.54823 -0.46600
O 	O 	0.92200 0.62210 0.41520 -0.43500
O 	O 	0.87320 0.58090 0.52470 -0.47300
O 	O 	0.09490 0.57160 0.56141 -0.46200
O 	O 	0.14570 0.60380 0.45177 -0.46700
F 	F 	0.16940 0.26190 0.96540 -0.38900
F 	F 	0.08430 0.09180 0.97190 -0.28400
F 	F 	0.20620 0.94560 0.02590 -0.31600
F 	F 	0.41010 0.97060 0.07240 -0.33600
F 	F 	0.49310 0.14230 0.06520 -0.39000
F 	F 	0.83060 0.73810 0.03460 -0.39900
F 	F 	0.91570 0.90820 0.02810 -0.29400
F 	F 	0.79380 0.05440 0.97410 -0.30900
F 	F 	0.58990 0.02940 0.92760 -0.32400
F 	F 	0.50690 0.85770 0.93480 -0.37300
