data_crystal

_cell_length_a 8.20870
_cell_length_b 14.99120
_cell_length_c 21.97890
_cell_angle_alpha 90.00000
_cell_angle_beta  94.70200
_cell_angle_gamma 90.00000

_symmetry_space_group_name_	'P 1'
_symmetry_space_group_name_H-M	'P 1'

loop_
_symmetry_equiv_pos_as_xyz
  x,y,z

loop_
_atom_site_label
_atom_site_type_symbol
_atom_site_fract_x
_atom_site_fract_y
_atom_site_fract_z
_atom_site_charge
Zn	Zn	0.32564 0.08091 0.13506 1.23500
Zn	Zn	0.53362 0.23276 0.24283 1.21600
Zn	Zn	0.17436 0.58091 0.36494 1.23600
Zn	Zn	0.96638 0.73276 0.25717 1.21700
Zn	Zn	0.67436 0.91909 0.86494 1.23600
Zn	Zn	0.46638 0.76724 0.75717 1.21700
Zn	Zn	0.82564 0.41909 0.63506 1.23600
Zn	Zn	0.03362 0.26724 0.74283 1.21700
H 	H 	0.35430 0.87660 0.25390 0.02200
H 	H 	0.74800 0.88130 0.41490 0.08300
H 	H 	0.70470 0.00600 0.35510 0.01100
H 	H 	0.87560 0.58400 0.46720 0.03600
H 	H 	0.46440 0.64970 0.54230 0.03700
H 	H 	0.40460 0.75230 0.46610 0.07100
H 	H 	0.40500 0.38280 0.14900 -0.01100
H 	H 	0.38730 0.53670 0.14540 0.08200
H 	H 	0.49630 0.61960 0.22790 0.01700
H 	H 	0.62690 0.54790 0.31020 0.09100
H 	H 	0.78480 0.47160 0.37660 0.07200
H 	H 	0.91380 0.38420 0.45030 0.02700
H 	H 	0.89360 0.23250 0.44210 0.08000
H 	H 	0.73910 0.17040 0.36130 0.00200
H 	H 	0.14570 0.37660 0.24610 0.02100
H 	H 	0.75200 0.38130 0.08510 0.08400
H 	H 	0.79530 0.50600 0.14490 0.01000
H 	H 	0.62440 0.08400 0.03280 0.03600
H 	H 	0.03560 0.14970 0.95770 0.03400
H 	H 	0.09540 0.25230 0.03390 0.07200
H 	H 	0.09500 0.88280 0.35100 -0.01200
H 	H 	0.11270 0.03670 0.35460 0.08200
H 	H 	0.00370 0.11960 0.27210 0.01700
H 	H 	0.87310 0.04790 0.18980 0.09100
H 	H 	0.71520 0.97160 0.12340 0.07200
H 	H 	0.58620 0.88420 0.04970 0.02700
H 	H 	0.60640 0.73250 0.05790 0.08000
H 	H 	0.76090 0.67040 0.13870 0.00200
H 	H 	0.64570 0.12340 0.74610 0.02200
H 	H 	0.25200 0.11870 0.58510 0.08300
H 	H 	0.29530 0.99400 0.64490 0.01100
H 	H 	0.12440 0.41600 0.53280 0.03600
H 	H 	0.53560 0.35030 0.45770 0.03700
H 	H 	0.59540 0.24770 0.53390 0.07100
H 	H 	0.59500 0.61720 0.85100 -0.01100
H 	H 	0.61270 0.46330 0.85460 0.08200
H 	H 	0.50370 0.38040 0.77210 0.01700
H 	H 	0.37310 0.45210 0.68980 0.09100
H 	H 	0.21520 0.52840 0.62340 0.07200
H 	H 	0.08620 0.61580 0.54970 0.02700
H 	H 	0.10640 0.76750 0.55790 0.08000
H 	H 	0.26090 0.82960 0.63870 0.00200
H 	H 	0.85430 0.62340 0.75390 0.02100
H 	H 	0.24800 0.61870 0.91490 0.08400
H 	H 	0.20470 0.49400 0.85510 0.01000
H 	H 	0.37560 0.91600 0.96720 0.03600
H 	H 	0.96440 0.85030 0.04230 0.03400
H 	H 	0.90460 0.74770 0.96610 0.07200
H 	H 	0.90500 0.11720 0.64900 -0.01200
H 	H 	0.88730 0.96330 0.64540 0.08200
H 	H 	0.99630 0.88040 0.72790 0.01700
H 	H 	0.12690 0.95210 0.81020 0.09100
H 	H 	0.28480 0.02840 0.87660 0.07200
H 	H 	0.41380 0.11580 0.95030 0.02700
H 	H 	0.39360 0.26750 0.94210 0.08000
H 	H 	0.23910 0.32960 0.86130 0.00200
C 	C 	0.49700 0.03420 0.25715 0.43800
C 	C 	0.52600 0.95390 0.29765 -0.16400
C 	C 	0.43130 0.87820 0.28738 0.09400
C 	C 	0.44780 0.80440 0.32558 -0.15900
C 	C 	0.56940 0.80470 0.37443 0.09100
C 	C 	0.66540 0.88070 0.38328 -0.15000
C 	C 	0.64210 0.95510 0.34668 0.08700
C 	C 	0.32850 0.72880 0.31457 0.42000
C 	C 	0.60300 0.73090 0.41945 0.06400
C 	C 	0.74570 0.68020 0.42058 -0.12900
C 	C 	0.86430 0.68840 0.37252 0.37900
C 	C 	0.78060 0.61790 0.46689 0.04600
C 	C 	0.67600 0.60570 0.51240 -0.09900
C 	C 	0.53520 0.65690 0.51168 0.03300
C 	C 	0.49950 0.71840 0.46595 -0.11100
C 	C 	0.71590 0.53960 0.56292 0.32000
C 	C 	0.45160 0.41630 0.18150 0.09200
C 	C 	0.43920 0.50850 0.17930 -0.14500
C 	C 	0.50500 0.55770 0.22820 0.06300
C 	C 	0.58260 0.51540 0.27680 -0.12800
C 	C 	0.59540 0.42250 0.27620 0.06700
C 	C 	0.68240 0.37130 0.32540 0.06100
C 	C 	0.77560 0.40980 0.37400 -0.11100
C 	C 	0.85250 0.35840 0.41740 0.05500
C 	C 	0.83990 0.26900 0.41270 -0.13800
C 	C 	0.74690 0.23220 0.36410 0.08400
C 	C 	0.00300 0.53420 0.24285 0.44100
C 	C 	0.97400 0.45390 0.20235 -0.16800
C 	C 	0.06870 0.37820 0.21262 0.09700
C 	C 	0.05220 0.30440 0.17442 -0.15900
C 	C 	0.93060 0.30470 0.12557 0.09100
C 	C 	0.83460 0.38070 0.11672 -0.15100
C 	C 	0.85790 0.45510 0.15332 0.09000
C 	C 	0.17150 0.22880 0.18543 0.42100
C 	C 	0.89700 0.23090 0.08055 0.06500
C 	C 	0.75430 0.18020 0.07942 -0.13000
C 	C 	0.63570 0.18840 0.12748 0.38000
C 	C 	0.71940 0.11790 0.03311 0.04700
C 	C 	0.82400 0.10570 0.98760 -0.10100
C 	C 	0.96480 0.15690 0.98832 0.03800
C 	C 	0.00050 0.21840 0.03405 -0.11400
C 	C 	0.78410 0.03960 0.93708 0.32100
C 	C 	0.04840 0.91630 0.31850 0.09500
C 	C 	0.06080 0.00850 0.32070 -0.14700
C 	C 	0.99500 0.05770 0.27180 0.06300
C 	C 	0.91740 0.01540 0.22320 -0.12700
C 	C 	0.90460 0.92250 0.22380 0.06600
C 	C 	0.81760 0.87130 0.17460 0.06100
C 	C 	0.72440 0.90980 0.12600 -0.11100
C 	C 	0.64750 0.85840 0.08260 0.05500
C 	C 	0.66010 0.76900 0.08730 -0.13800
C 	C 	0.75310 0.73220 0.13590 0.08400
C 	C 	0.50300 0.96580 0.74285 0.43800
C 	C 	0.47400 0.04610 0.70235 -0.16400
C 	C 	0.56870 0.12180 0.71262 0.09400
C 	C 	0.55220 0.19560 0.67442 -0.15900
C 	C 	0.43060 0.19530 0.62557 0.09100
C 	C 	0.33460 0.11930 0.61672 -0.15000
C 	C 	0.35790 0.04490 0.65332 0.08700
C 	C 	0.67150 0.27120 0.68543 0.42000
C 	C 	0.39700 0.26910 0.58055 0.06400
C 	C 	0.25430 0.31980 0.57942 -0.12900
C 	C 	0.13570 0.31160 0.62748 0.37900
C 	C 	0.21940 0.38210 0.53311 0.04600
C 	C 	0.32400 0.39430 0.48760 -0.09900
C 	C 	0.46480 0.34310 0.48832 0.03300
C 	C 	0.50050 0.28160 0.53405 -0.11100
C 	C 	0.28410 0.46040 0.43708 0.32000
C 	C 	0.54840 0.58370 0.81850 0.09200
C 	C 	0.56080 0.49150 0.82070 -0.14500
C 	C 	0.49500 0.44230 0.77180 0.06300
C 	C 	0.41740 0.48460 0.72320 -0.12800
C 	C 	0.40460 0.57750 0.72380 0.06700
C 	C 	0.31760 0.62870 0.67460 0.06100
C 	C 	0.22440 0.59020 0.62600 -0.11100
C 	C 	0.14750 0.64160 0.58260 0.05500
C 	C 	0.16010 0.73100 0.58730 -0.13800
C 	C 	0.25310 0.76780 0.63590 0.08400
C 	C 	0.99700 0.46580 0.75715 0.44100
C 	C 	0.02600 0.54610 0.79765 -0.16800
C 	C 	0.93130 0.62180 0.78738 0.09700
C 	C 	0.94780 0.69560 0.82558 -0.15900
C 	C 	0.06940 0.69530 0.87443 0.09100
C 	C 	0.16540 0.61930 0.88328 -0.15100
C 	C 	0.14210 0.54490 0.84668 0.09000
C 	C 	0.82850 0.77120 0.81457 0.42100
C 	C 	0.10300 0.76910 0.91945 0.06500
C 	C 	0.24570 0.81980 0.92058 -0.13000
C 	C 	0.36430 0.81160 0.87252 0.38000
C 	C 	0.28060 0.88210 0.96689 0.04700
C 	C 	0.17600 0.89430 0.01240 -0.10100
C 	C 	0.03520 0.84310 0.01168 0.03800
C 	C 	0.99950 0.78160 0.96595 -0.11400
C 	C 	0.21590 0.96040 0.06292 0.32100
C 	C 	0.95160 0.08370 0.68150 0.09500
C 	C 	0.93920 0.99150 0.67930 -0.14700
C 	C 	0.00500 0.94230 0.72820 0.06300
C 	C 	0.08260 0.98460 0.77680 -0.12700
C 	C 	0.09540 0.07750 0.77620 0.06600
C 	C 	0.18240 0.12870 0.82540 0.06100
C 	C 	0.27560 0.09020 0.87400 -0.11100
C 	C 	0.35250 0.14160 0.91740 0.05500
C 	C 	0.33990 0.23100 0.91270 -0.13800
C 	C 	0.24690 0.26780 0.86410 0.08400
N 	N 	0.52820 0.37450 0.22897 -0.23500
N 	N 	0.66790 0.28200 0.32104 -0.24100
N 	N 	0.97180 0.87450 0.27103 -0.23600
N 	N 	0.83210 0.78200 0.17896 -0.24100
N 	N 	0.47180 0.62550 0.77103 -0.23500
N 	N 	0.33210 0.71800 0.67896 -0.24100
N 	N 	0.02820 0.12550 0.72897 -0.23600
N 	N 	0.16790 0.21800 0.82104 -0.24100
O 	O 	0.53740 0.10807 0.27925 -0.48000
O 	O 	0.43410 0.01846 0.20407 -0.50100
O 	O 	0.35010 0.66086 0.34715 -0.48000
O 	O 	0.21470 0.73878 0.27325 -0.48700
O 	O 	0.80810 0.70783 0.31916 -0.46200
O 	O 	0.01360 0.67571 0.38796 -0.48100
O 	O 	0.83180 0.48522 0.55737 -0.42500
O 	O 	0.63970 0.54040 0.60909 -0.34100
O 	O 	0.96260 0.60807 0.22075 -0.48100
O 	O 	0.06590 0.51846 0.29593 -0.50200
O 	O 	0.14990 0.16086 0.15285 -0.48000
O 	O 	0.28530 0.23878 0.22675 -0.48700
O 	O 	0.69190 0.20783 0.18084 -0.46200
O 	O 	0.48640 0.17571 0.11204 -0.48200
O 	O 	0.66820 0.98522 0.94263 -0.42500
O 	O 	0.86030 0.04040 0.89091 -0.34100
O 	O 	0.46260 0.89193 0.72075 -0.48000
O 	O 	0.56590 0.98154 0.79593 -0.50100
O 	O 	0.64990 0.33914 0.65285 -0.48000
O 	O 	0.78530 0.26122 0.72675 -0.48700
O 	O 	0.19190 0.29217 0.68084 -0.46200
O 	O 	0.98640 0.32429 0.61204 -0.48100
O 	O 	0.16820 0.51478 0.44263 -0.42500
O 	O 	0.36030 0.45960 0.39091 -0.34100
O 	O 	0.03740 0.39193 0.77925 -0.48100
O 	O 	0.93410 0.48154 0.70407 -0.50200
O 	O 	0.85010 0.83914 0.84715 -0.48000
O 	O 	0.71470 0.76122 0.77325 -0.48700
O 	O 	0.30810 0.79217 0.81916 -0.46200
O 	O 	0.51360 0.82429 0.88796 -0.48200
O 	O 	0.33180 0.01478 0.05737 -0.42500
O 	O 	0.13970 0.95960 0.10909 -0.34100
