data_crystal

_cell_length_a 10.89770
_cell_length_b 14.66130
_cell_length_c 18.71160
_cell_angle_alpha 90.00000
_cell_angle_beta  90.00000
_cell_angle_gamma 90.00000

_symmetry_space_group_name_	'P 1'
_symmetry_space_group_name_H-M	'P 1'

loop_
_symmetry_equiv_pos_as_xyz
  x,y,z

loop_
_atom_site_label
_atom_site_type_symbol
_atom_site_fract_x
_atom_site_fract_y
_atom_site_fract_z
_atom_site_charge
Zn	Zn	0.54085 0.95376 0.99857 1.21000
Zn	Zn	0.45915 0.45376 0.00143 1.21200
Zn	Zn	0.95915 0.95376 0.49857 1.21000
Zn	Zn	0.04085 0.45376 0.50143 1.21100
H 	H 	0.71450 0.10430 0.09170 0.07700
H 	H 	0.28550 0.60430 0.90830 0.07500
H 	H 	0.78550 0.10430 0.59170 0.07800
H 	H 	0.21450 0.60430 0.40830 0.07500
H 	H 	0.71570 0.18600 0.14590 0.07700
H 	H 	0.28430 0.68600 0.85410 0.07600
H 	H 	0.78430 0.18600 0.64590 0.07900
H 	H 	0.21570 0.68600 0.35410 0.07700
H 	H 	0.58210 0.32140 0.11140 -0.00000
H 	H 	0.41790 0.82140 0.88860 -0.00100
H 	H 	0.91790 0.32140 0.61140 -0.00000
H 	H 	0.08210 0.82140 0.38860 -0.00100
H 	H 	0.53800 0.28230 0.90630 0.02100
H 	H 	0.46200 0.78230 0.09370 0.02000
H 	H 	0.96200 0.28230 0.40630 0.02100
H 	H 	0.03800 0.78230 0.59370 0.02000
H 	H 	0.66760 0.15730 0.95160 0.04400
H 	H 	0.33240 0.65730 0.04840 0.04300
H 	H 	0.83240 0.15730 0.45160 0.04400
H 	H 	0.16760 0.65730 0.54840 0.04300
H 	H 	0.71350 0.92720 0.74790 0.03800
H 	H 	0.28650 0.42720 0.25210 0.04600
H 	H 	0.78650 0.92720 0.24790 0.04000
H 	H 	0.21350 0.42720 0.75210 0.04600
H 	H 	0.04740 0.02950 0.71300 0.02500
H 	H 	0.95260 0.52950 0.28700 0.03500
H 	H 	0.45260 0.02950 0.21300 0.02800
H 	H 	0.54740 0.52950 0.78700 0.03500
H 	H 	0.06020 0.07490 0.83280 0.07300
H 	H 	0.93980 0.57490 0.16720 0.06400
H 	H 	0.43980 0.07490 0.33280 0.07100
H 	H 	0.56020 0.57490 0.66720 0.06400
H 	H 	0.89440 0.04480 0.90870 0.02900
H 	H 	0.10560 0.54480 0.09130 0.03800
H 	H 	0.60560 0.04480 0.40870 0.03100
H 	H 	0.39440 0.54480 0.59130 0.03800
H 	H 	0.38910 0.11060 0.07100 0.00800
H 	H 	0.61090 0.61060 0.92900 0.00600
H 	H 	0.11090 0.11060 0.57100 0.00700
H 	H 	0.88910 0.61060 0.42900 0.00600
H 	H 	0.25550 0.18050 0.88270 0.04900
H 	H 	0.74450 0.68050 0.11730 0.04900
H 	H 	0.24450 0.18050 0.38270 0.04900
H 	H 	0.75550 0.68050 0.61730 0.04900
H 	H 	0.37630 0.04070 0.86810 0.02500
H 	H 	0.62370 0.54070 0.13190 0.02300
H 	H 	0.12370 0.04070 0.36810 0.02500
H 	H 	0.87630 0.54070 0.63190 0.02300
H 	H 	0.23950 0.30160 0.99270 0.08100
H 	H 	0.76050 0.80160 0.00730 0.08000
H 	H 	0.26050 0.30160 0.49270 0.07800
H 	H 	0.73950 0.80160 0.50730 0.07800
H 	H 	0.27980 0.26490 0.06790 0.07500
H 	H 	0.72020 0.76490 0.93210 0.07400
H 	H 	0.22020 0.26490 0.56790 0.07300
H 	H 	0.77980 0.76490 0.43210 0.07300
H 	H 	0.06490 0.35030 0.07530 0.06700
H 	H 	0.93510 0.85030 0.92470 0.06400
H 	H 	0.43510 0.35030 0.57530 0.06500
H 	H 	0.56490 0.85030 0.42470 0.06400
H 	H 	0.86540 0.32130 0.10970 0.05400
H 	H 	0.13460 0.82130 0.89030 0.05300
H 	H 	0.63460 0.32130 0.60970 0.05600
H 	H 	0.36540 0.82130 0.39030 0.05400
H 	H 	0.90390 0.06270 0.04170 0.06500
H 	H 	0.09610 0.56270 0.95830 0.06400
H 	H 	0.59610 0.06270 0.54170 0.06700
H 	H 	0.40390 0.56270 0.45830 0.06400
H 	H 	0.10370 0.09300 0.01150 0.06600
H 	H 	0.89630 0.59300 0.98850 0.06500
H 	H 	0.39630 0.09300 0.51150 0.06500
H 	H 	0.60370 0.59300 0.48850 0.06400
C 	C 	0.87300 0.94280 0.64109 0.36800
C 	C 	0.12700 0.44280 0.35891 0.35900
C 	C 	0.62700 0.94280 0.14109 0.36500
C 	C 	0.37300 0.44280 0.85891 0.35900
C 	C 	0.73090 0.16900 0.09660 -0.12800
C 	C 	0.26910 0.66900 0.90340 -0.12800
C 	C 	0.76910 0.16900 0.59660 -0.13100
C 	C 	0.23090 0.66900 0.40340 -0.12900
C 	C 	0.58680 0.29610 0.06591 0.08800
C 	C 	0.41320 0.79610 0.93409 0.08700
C 	C 	0.91320 0.29610 0.56591 0.08800
C 	C 	0.08680 0.79610 0.43409 0.08700
C 	C 	0.56290 0.27440 0.95338 0.01700
C 	C 	0.43710 0.77440 0.04662 0.01700
C 	C 	0.93710 0.27440 0.45338 0.01700
C 	C 	0.06290 0.77440 0.54662 0.01600
C 	C 	0.63490 0.20500 0.97817 -0.01800
C 	C 	0.36510 0.70500 0.02183 -0.02000
C 	C 	0.86510 0.20500 0.47817 -0.02000
C 	C 	0.13490 0.70500 0.52183 -0.02100
C 	C 	0.68070 0.96700 0.88337 0.30700
C 	C 	0.31930 0.46700 0.11663 0.29800
C 	C 	0.81930 0.96700 0.38337 0.30500
C 	C 	0.18070 0.46700 0.61663 0.29800
C 	C 	0.78580 0.98660 0.83486 -0.12200
C 	C 	0.21420 0.48660 0.16514 -0.09300
C 	C 	0.71420 0.98660 0.33486 -0.11400
C 	C 	0.28580 0.48660 0.66514 -0.09300
C 	C 	0.78240 0.95800 0.76461 0.05400
C 	C 	0.21760 0.45800 0.23539 0.03200
C 	C 	0.71760 0.95800 0.26461 0.04800
C 	C 	0.28240 0.45800 0.73539 0.03200
C 	C 	0.87980 0.97420 0.71823 -0.13400
C 	C 	0.12020 0.47420 0.28177 -0.10500
C 	C 	0.62020 0.97420 0.21823 -0.12500
C 	C 	0.37980 0.47420 0.78177 -0.10600
C 	C 	0.98220 0.01800 0.74378 0.06200
C 	C 	0.01780 0.51800 0.25622 0.02600
C 	C 	0.51780 0.01800 0.24378 0.05100
C 	C 	0.48220 0.51800 0.75622 0.02700
C 	C 	0.99040 0.04570 0.81568 -0.11900
C 	C 	0.00960 0.54570 0.18432 -0.09300
C 	C 	0.50960 0.04570 0.31568 -0.11200
C 	C 	0.49040 0.54570 0.68432 -0.09300
C 	C 	0.89030 0.02820 0.86083 0.05200
C 	C 	0.10970 0.52820 0.13917 0.01800
C 	C 	0.60970 0.02820 0.36083 0.04300
C 	C 	0.39030 0.52820 0.63917 0.01800
C 	C 	0.37150 0.11050 0.02238 0.07400
C 	C 	0.62850 0.61050 0.97762 0.07800
C 	C 	0.12850 0.11050 0.52238 0.07900
C 	C 	0.87150 0.61050 0.47762 0.07800
C 	C 	0.29720 0.14920 0.91843 -0.01500
C 	C 	0.70280 0.64920 0.08157 -0.01500
C 	C 	0.20280 0.14920 0.41843 -0.01500
C 	C 	0.79720 0.64920 0.58157 -0.01500
C 	C 	0.36440 0.07210 0.91068 0.01400
C 	C 	0.63560 0.57210 0.08932 0.01300
C 	C 	0.13560 0.07210 0.41068 0.01300
C 	C 	0.86440 0.57210 0.58932 0.01300
C 	C 	0.23770 0.24880 0.02400 -0.14300
C 	C 	0.76230 0.74880 0.97600 -0.14000
C 	C 	0.26230 0.24880 0.52400 -0.13700
C 	C 	0.73770 0.74880 0.47600 -0.13700
C 	C 	0.10550 0.22480 0.04081 0.07900
C 	C 	0.89450 0.72480 0.95919 0.07600
C 	C 	0.39450 0.22480 0.54081 0.07400
C 	C 	0.60550 0.72480 0.45919 0.07500
C 	C 	0.03260 0.29200 0.06931 -0.08600
C 	C 	0.96740 0.79200 0.93069 -0.08300
C 	C 	0.46740 0.29200 0.56931 -0.08100
C 	C 	0.53260 0.79200 0.43069 -0.08200
C 	C 	0.91260 0.27540 0.08930 -0.05700
C 	C 	0.08740 0.77540 0.91070 -0.06000
C 	C 	0.58740 0.27540 0.58930 -0.06200
C 	C 	0.41260 0.77540 0.41070 -0.06100
C 	C 	0.86300 0.18780 0.07830 0.06300
C 	C 	0.13700 0.68780 0.92170 0.06400
C 	C 	0.63700 0.18780 0.57830 0.06700
C 	C 	0.36300 0.68780 0.42170 0.06400
C 	C 	0.93590 0.12070 0.04911 -0.06900
C 	C 	0.06410 0.62070 0.95089 -0.07200
C 	C 	0.56410 0.12070 0.54911 -0.07300
C 	C 	0.43590 0.62070 0.45089 -0.07200
C 	C 	0.05550 0.13910 0.03090 -0.07500
C 	C 	0.94450 0.63910 0.96910 -0.07200
C 	C 	0.44450 0.13910 0.53090 -0.07000
C 	C 	0.55550 0.63910 0.46910 -0.07100
N 	N 	0.53330 0.33060 0.00968 -0.26800
N 	N 	0.46670 0.83060 0.99032 -0.26900
N 	N 	0.96670 0.33060 0.50968 -0.26700
N 	N 	0.03330 0.83060 0.49032 -0.26800
N 	N 	0.64960 0.21974 0.05019 -0.10400
N 	N 	0.35040 0.71974 0.94981 -0.10400
N 	N 	0.85040 0.21974 0.55019 -0.10200
N 	N 	0.14960 0.71974 0.44981 -0.10300
N 	N 	0.41190 0.04800 0.97519 -0.25100
N 	N 	0.58810 0.54800 0.02481 -0.25500
N 	N 	0.08810 0.04800 0.47519 -0.25300
N 	N 	0.91190 0.54800 0.52481 -0.25500
N 	N 	0.30290 0.17190 0.98899 -0.09800
N 	N 	0.69710 0.67190 0.01101 -0.10000
N 	N 	0.19710 0.17190 0.48899 -0.10100
N 	N 	0.80290 0.67190 0.51101 -0.10100
O 	O 	0.58190 0.93509 0.85856 -0.32600
O 	O 	0.41810 0.43509 0.14144 -0.32200
O 	O 	0.91810 0.93509 0.35856 -0.32500
O 	O 	0.08190 0.43509 0.64144 -0.32200
O 	O 	0.95186 0.97952 0.60044 -0.47700
O 	O 	0.04814 0.47952 0.39956 -0.47100
O 	O 	0.54814 0.97952 0.10044 -0.47500
O 	O 	0.45186 0.47952 0.89956 -0.47100
O 	O 	0.79630 0.88780 0.62281 -0.31600
O 	O 	0.20370 0.38780 0.37719 -0.31300
O 	O 	0.70370 0.88780 0.12281 -0.31500
O 	O 	0.29630 0.38780 0.87719 -0.31300
O 	O 	0.69619 0.98297 0.95029 -0.45100
O 	O 	0.30381 0.48297 0.04971 -0.44500
O 	O 	0.80381 0.98297 0.45029 -0.45000
O 	O 	0.19619 0.48297 0.54971 -0.44500
