data_crystal

_cell_length_a 6.88900
_cell_length_b 11.07300
_cell_length_c 11.09690
_cell_angle_alpha 119.92900
_cell_angle_beta  105.79900
_cell_angle_gamma 90.00000

_symmetry_space_group_name_	'P 1'
_symmetry_space_group_name_H-M	'P 1'

loop_
_symmetry_equiv_pos_as_xyz
  x,y,z

loop_
_atom_site_label
_atom_site_type_symbol
_atom_site_fract_x
_atom_site_fract_y
_atom_site_fract_z
_atom_site_charge
Fe	Fe	-0.00000 0.00000 -0.00000 1.12600
Fe	Fe	0.50000 0.00000 -0.00000 1.14200
H 	H 	0.66260 0.01690 0.41760 0.18700
H 	H 	0.21240 0.96560 0.36140 0.22100
H 	H 	0.83740 0.59930 0.58240 0.08500
H 	H 	0.28760 0.60420 0.63860 0.08300
H 	H 	0.33740 0.98310 0.58240 -0.07100
H 	H 	0.78760 0.03440 0.63860 -0.09100
H 	H 	0.16260 0.40070 0.41760 0.03100
H 	H 	0.71240 0.39580 0.36140 0.04600
C 	C 	0.92190 0.98690 0.36300 0.38900
C 	C 	0.79900 0.00950 0.45040 -0.54000
C 	C 	0.84350 0.97450 0.21700 0.21700
C 	C 	0.12600 0.97900 0.41700 -0.45700
C 	C 	0.57810 0.62390 0.63700 -0.01400
C 	C 	0.70100 0.55910 0.54960 -0.04800
C 	C 	0.65650 0.75750 0.78300 0.33900
C 	C 	0.37400 0.56200 0.58300 -0.05500
C 	C 	0.07810 0.01310 0.63700 -0.49800
C 	C 	0.20100 0.99050 0.54960 0.50600
C 	C 	0.15650 0.02550 0.78300 0.48300
C 	C 	0.87400 0.02100 0.58300 0.41900
C 	C 	0.42190 0.37610 0.36300 -0.10500
C 	C 	0.29900 0.44090 0.45040 0.02100
C 	C 	0.34350 0.24250 0.21700 0.36600
C 	C 	0.62600 0.43800 0.41700 0.01700
O 	O 	0.96090 0.94520 0.14240 -0.32400
O 	O 	0.65630 0.98820 0.17760 -0.30200
O 	O 	0.53910 0.80280 0.85760 -0.29000
O 	O 	0.84370 0.81060 0.82240 -0.27100
O 	O 	0.03910 0.05480 0.85760 -0.38500
O 	O 	0.34370 0.01180 0.82240 -0.39300
O 	O 	0.46090 0.19720 0.14240 -0.44800
O 	O 	0.15630 0.18940 0.17760 -0.44300
O 	O 	0.25000 0.91820 -0.00000 -0.43100
O 	O 	0.75000 0.08180 -0.00000 -0.51200
