data_crystal

_cell_length_a 12.32020
_cell_length_b 12.61370
_cell_length_c 12.61370
_cell_angle_alpha 76.20200
_cell_angle_beta  60.76690
_cell_angle_gamma 60.76690

_symmetry_space_group_name_	'P 1'
_symmetry_space_group_name_H-M	'P 1'

loop_
_symmetry_equiv_pos_as_xyz
  x,y,z

loop_
_atom_site_label
_atom_site_type_symbol
_atom_site_fract_x
_atom_site_fract_y
_atom_site_fract_z
_atom_site_charge
In	In	0.31204 0.37593 -0.00000 1.97500
In	In	0.68796 0.62407 -0.00000 1.97100
In	In	0.56203 0.50000 0.87594 2.04500
In	In	0.93797 0.50000 0.12406 1.98000
H 	H 	0.27110 0.44620 0.67420 0.04900
H 	H 	0.39150 0.55380 0.32580 0.02100
H 	H 	0.19530 0.82580 0.94620 0.05000
H 	H 	0.96730 0.17420 0.05380 -0.05000
H 	H 	0.85850 0.17420 0.94620 0.01900
H 	H 	0.97890 0.82580 0.05380 -0.01800
H 	H 	0.28270 0.44620 0.32580 0.01900
H 	H 	0.05470 0.55380 0.67420 0.03600
H 	H 	0.12500 0.55740 0.94260 0.31600
H 	H 	0.62500 0.44260 0.05740 0.29200
H 	H 	0.31760 0.55740 0.05740 0.29400
H 	H 	0.93240 0.44260 0.94260 0.30300
H 	H 	0.61410 0.50000 0.50000 0.04500
H 	H 	0.36410 0.00000 -0.00000 0.06700
H 	H 	0.63590 0.00000 -0.00000 0.06500
H 	H 	0.88590 0.50000 0.50000 0.05100
C 	C 	0.33222 0.46886 0.60450 -0.00000
C 	C 	0.44293 0.47107 0.60607 -0.11100
C 	C 	0.45724 0.44683 0.72121 0.41900
C 	C 	0.40558 0.53114 0.39550 0.00400
C 	C 	0.52007 0.52893 0.39393 -0.12900
C 	C 	0.62528 0.55317 0.27879 0.42600
C 	C 	0.18672 0.89550 0.96886 0.12000
C 	C 	0.29900 0.89393 0.97107 0.03100
C 	C 	0.42845 0.77879 0.94683 0.39100
C 	C 	0.05108 0.10450 0.03114 0.06200
C 	C 	0.16400 0.10607 0.02893 -0.12100
C 	C 	0.15407 0.22121 0.05317 0.41500
C 	C 	0.84442 0.10450 0.96886 0.19500
C 	C 	0.72993 0.10607 0.97107 0.03700
C 	C 	0.62472 0.22121 0.94683 0.39500
C 	C 	0.91778 0.89550 0.03114 -0.00800
C 	C 	0.80707 0.89393 0.02893 -0.14900
C 	C 	0.79276 0.77879 0.05317 0.41300
C 	C 	0.19892 0.46886 0.39550 0.01000
C 	C 	0.08600 0.47107 0.39393 -0.10300
C 	C 	0.09593 0.44683 0.27879 0.46200
C 	C 	0.06328 0.53114 0.60450 0.05300
C 	C 	0.95100 0.52893 0.60607 -0.14900
C 	C 	0.82155 0.55317 0.72121 0.42600
C 	C 	0.31130 0.50000 0.50000 -0.00300
C 	C 	0.53860 0.50000 0.50000 0.06200
C 	C 	0.06130 0.00000 -0.00000 -0.09400
C 	C 	0.28860 0.00000 -0.00000 -0.12400
C 	C 	0.93870 0.00000 -0.00000 -0.18200
C 	C 	0.71140 0.00000 -0.00000 -0.12200
C 	C 	0.18870 0.50000 0.50000 -0.02100
C 	C 	0.96140 0.50000 0.50000 0.03400
O 	O 	0.40271 0.38379 0.80085 -0.48900
O 	O 	0.52479 0.49397 0.72813 -0.50800
O 	O 	0.58735 0.61621 0.19915 -0.57900
O 	O 	0.74689 0.50603 0.27187 -0.55100
O 	O 	0.45356 0.69915 0.88379 -0.48900
O 	O 	0.50292 0.77187 0.99397 -0.41100
O 	O 	0.03650 0.30085 0.11621 -0.55700
O 	O 	0.26876 0.22813 0.00603 -0.59600
O 	O 	0.66265 0.30085 0.88379 -0.48900
O 	O 	0.50311 0.22813 0.99397 -0.40300
O 	O 	0.84729 0.69915 0.11621 -0.59100
O 	O 	0.72521 0.77187 0.00603 -0.61400
O 	O 	0.21350 0.38379 0.19915 -0.57900
O 	O 	0.98124 0.49397 0.27187 -0.58100
O 	O 	0.79644 0.61621 0.80085 -0.50100
O 	O 	0.74708 0.50603 0.72813 -0.51100
O 	O 	0.12500 0.50100 0.99900 -0.80300
O 	O 	0.62500 0.49900 0.00100 -1.05200
O 	O 	0.37400 0.50100 0.00100 -1.05000
O 	O 	0.87600 0.49900 0.99900 -0.81500
