data_crystal

_cell_length_a 9.40930
_cell_length_b 9.87600
_cell_length_c 18.30700
_cell_angle_alpha 79.35000
_cell_angle_beta  87.30000
_cell_angle_gamma 68.20000

_symmetry_space_group_name_	'P 1'
_symmetry_space_group_name_H-M	'P 1'

loop_
_symmetry_equiv_pos_as_xyz
  x,y,z

loop_
_atom_site_label
_atom_site_type_symbol
_atom_site_fract_x
_atom_site_fract_y
_atom_site_fract_z
_atom_site_charge
Zn	Zn	0.80924 0.10031 0.85665 1.21300
Zn	Zn	0.09430 0.09448 0.96855 1.20900
Zn	Zn	0.19076 0.89969 0.14335 1.21300
Zn	Zn	0.90570 0.90552 0.03145 1.20900
H 	H 	0.93620 0.06760 0.70680 -0.03000
H 	H 	0.04720 0.18860 0.61650 0.10700
H 	H 	0.93170 0.52310 0.72520 0.12500
H 	H 	0.81520 0.40260 0.81110 -0.02000
H 	H 	0.07860 0.54100 0.61580 0.08500
H 	H 	0.16550 0.30620 0.54780 0.03100
H 	H 	0.29690 0.30590 0.43970 0.05200
H 	H 	0.43340 0.39140 0.35050 0.06200
H 	H 	0.36040 0.73940 0.44490 0.05200
H 	H 	0.22680 0.64800 0.53800 0.04900
H 	H 	0.53630 0.53420 0.29260 0.03700
H 	H 	0.49960 0.79050 0.33150 0.08700
H 	H 	0.70200 0.55260 0.19270 0.11000
H 	H 	0.84150 0.63170 0.09910 -0.01000
H 	H 	0.74930 0.00040 0.17190 -0.01500
H 	H 	0.60980 0.93030 0.26670 0.11400
H 	H 	0.42560 0.46020 0.93900 0.04800
H 	H 	0.11890 0.46010 0.09910 0.03700
H 	H 	0.47830 0.08650 0.08580 0.03600
H 	H 	0.01500 0.90370 0.91910 0.34300
H 	H 	0.06380 0.93240 0.29320 -0.03000
H 	H 	0.95280 0.81140 0.38350 0.10700
H 	H 	0.06830 0.47690 0.27480 0.12500
H 	H 	0.18480 0.59740 0.18890 -0.02000
H 	H 	0.92140 0.45900 0.38420 0.08500
H 	H 	0.83450 0.69380 0.45220 0.03100
H 	H 	0.70310 0.69410 0.56030 0.05200
H 	H 	0.56660 0.60860 0.64950 0.06200
H 	H 	0.63960 0.26060 0.55510 0.05200
H 	H 	0.77320 0.35200 0.46200 0.04900
H 	H 	0.46370 0.46580 0.70740 0.03700
H 	H 	0.50040 0.20950 0.66850 0.08700
H 	H 	0.29800 0.44740 0.80730 0.11000
H 	H 	0.15850 0.36830 0.90090 -0.01000
H 	H 	0.25070 0.99960 0.82810 -0.01500
H 	H 	0.39020 0.06970 0.73330 0.11400
H 	H 	0.57440 0.53980 0.06100 0.04800
H 	H 	0.88110 0.53990 0.90090 0.03700
H 	H 	0.52170 0.91350 0.91420 0.03600
H 	H 	0.98500 0.09630 0.08090 0.34300
C 	C 	0.93590 0.15990 0.71140 0.12600
C 	C 	0.00390 0.23210 0.65720 -0.21500
C 	C 	0.00760 0.36660 0.66300 0.17600
C 	C 	0.93500 0.42970 0.72070 -0.21400
C 	C 	0.86650 0.35630 0.77250 0.11700
C 	C 	0.08620 0.44770 0.60870 -0.15000
C 	C 	0.16190 0.39870 0.55410 -0.00400
C 	C 	0.24610 0.46860 0.49840 0.02000
C 	C 	0.30950 0.39430 0.44150 -0.04900
C 	C 	0.39050 0.44630 0.38750 -0.06300
C 	C 	0.41040 0.57490 0.38620 0.03000
C 	C 	0.34810 0.65070 0.44360 -0.05800
C 	C 	0.26690 0.59600 0.49960 -0.05300
C 	C 	0.50150 0.60600 0.32250 -0.01200
C 	C 	0.53760 0.71530 0.30370 -0.15000
C 	C 	0.63560 0.73720 0.24090 0.16200
C 	C 	0.70960 0.64480 0.18920 -0.19300
C 	C 	0.79380 0.69320 0.13300 0.11300
C 	C 	0.73970 0.90890 0.17580 0.11000
C 	C 	0.65460 0.86720 0.23310 -0.19900
C 	C 	0.47300 0.25980 0.00633 -0.11400
C 	C 	0.39130 0.41040 0.97984 0.03400
C 	C 	0.25810 0.48550 0.01510 -0.09900
C 	C 	0.20850 0.41070 0.07602 0.05200
C 	C 	0.29210 0.26170 0.10286 -0.13500
C 	C 	0.42330 0.18640 0.06795 0.05600
C 	C 	0.61340 0.17510 0.96859 0.38500
C 	C 	0.16480 0.64730 0.98677 0.34200
C 	C 	0.06410 0.84010 0.28860 0.12600
C 	C 	0.99610 0.76790 0.34280 -0.21500
C 	C 	0.99240 0.63340 0.33700 0.17600
C 	C 	0.06500 0.57030 0.27930 -0.21400
C 	C 	0.13350 0.64370 0.22750 0.11700
C 	C 	0.91380 0.55230 0.39130 -0.15000
C 	C 	0.83810 0.60130 0.44590 -0.00400
C 	C 	0.75390 0.53140 0.50160 0.02000
C 	C 	0.69050 0.60570 0.55850 -0.04900
C 	C 	0.60950 0.55370 0.61250 -0.06300
C 	C 	0.58960 0.42510 0.61380 0.03000
C 	C 	0.65190 0.34930 0.55640 -0.05800
C 	C 	0.73310 0.40400 0.50040 -0.05300
C 	C 	0.49850 0.39400 0.67750 -0.01200
C 	C 	0.46240 0.28470 0.69630 -0.15000
C 	C 	0.36440 0.26280 0.75910 0.16200
C 	C 	0.29040 0.35520 0.81080 -0.19300
C 	C 	0.20620 0.30680 0.86700 0.11300
C 	C 	0.26030 0.09110 0.82420 0.11000
C 	C 	0.34540 0.13280 0.76690 -0.19900
C 	C 	0.52700 0.74020 0.99367 -0.11400
C 	C 	0.60870 0.58960 0.02016 0.03400
C 	C 	0.74190 0.51450 0.98490 -0.09900
C 	C 	0.79150 0.58930 0.92398 0.05200
C 	C 	0.70790 0.73830 0.89714 -0.13500
C 	C 	0.57670 0.81360 0.93205 0.05600
C 	C 	0.38660 0.82490 0.03141 0.38500
C 	C 	0.83520 0.35270 0.01323 0.34200
S 	S 	0.24047 0.17554 0.18820 0.51800
S 	S 	0.75953 0.82446 0.81180 0.51800
N 	N 	0.87060 0.21850 0.76952 -0.29400
N 	N 	0.80890 0.82380 0.12576 -0.26500
N 	N 	0.12940 0.78150 0.23048 -0.29400
N 	N 	0.19110 0.17620 0.87424 -0.26500
O 	O 	0.68560 0.04210 0.99858 -0.49600
O 	O 	0.64950 0.23840 0.90857 -0.47800
O 	O 	0.04700 0.70110 0.02500 -0.47300
O 	O 	0.20670 0.71580 0.93194 -0.31400
O 	O 	0.28760 0.01680 0.18301 -0.45700
O 	O 	0.33140 0.19270 0.24455 -0.26200
O 	O 	0.07760 0.24620 0.19452 -0.29300
O 	O 	0.98140 0.98750 0.92582 -0.92300
O 	O 	0.31440 0.95790 0.00142 -0.49600
O 	O 	0.35050 0.76160 0.09143 -0.47800
O 	O 	0.95300 0.29890 0.97500 -0.47300
O 	O 	0.79330 0.28420 0.06806 -0.31400
O 	O 	0.71240 0.98320 0.81699 -0.45700
O 	O 	0.66860 0.80730 0.75545 -0.26200
O 	O 	0.92240 0.75380 0.80548 -0.29300
O 	O 	0.01860 0.01250 0.07418 -0.92300
