data_crystal

_cell_length_a 10.82100
_cell_length_b 12.16900
_cell_length_c 12.19450
_cell_angle_alpha 119.48200
_cell_angle_beta  116.33900
_cell_angle_gamma 90.00000

_symmetry_space_group_name_	'P 1'
_symmetry_space_group_name_H-M	'P 1'

loop_
_symmetry_equiv_pos_as_xyz
  x,y,z

loop_
_atom_site_label
_atom_site_type_symbol
_atom_site_fract_x
_atom_site_fract_y
_atom_site_fract_z
_atom_site_charge
Ga	Ga	0.00000 0.50000 0.50000 1.99500
Ga	Ga	0.50000 0.00000 0.50000 1.98200
Ga	Ga	0.50000 0.50000 -0.00000 1.98800
Ga	Ga	0.50000 0.00000 -0.00000 1.96000
H 	H 	0.28600 0.58100 0.78200 -0.05000
H 	H 	0.01300 0.25000 0.53800 -0.03100
H 	H 	0.19100 0.26000 0.74400 0.02400
H 	H 	0.72800 0.25600 0.33200 -0.04800
H 	H 	0.99700 0.27200 0.20600 -0.03400
H 	H 	0.79100 0.06700 0.99600 0.12900
H 	H 	0.30600 0.44600 0.55400 -0.03600
H 	H 	0.07500 0.55100 0.29600 -0.03500
H 	H 	0.30600 0.53900 0.29200 0.03100
H 	H 	0.74900 0.63600 0.98400 -0.02200
H 	H 	0.50400 0.91900 0.21800 0.14300
H 	H 	0.47500 0.25000 0.46200 0.00100
H 	H 	0.44700 0.24000 0.25600 -0.00100
H 	H 	0.39600 0.24400 0.66800 -0.05800
H 	H 	0.79100 0.22800 0.79400 0.06400
H 	H 	0.79500 0.43300 0.00400 -0.16100
H 	H 	0.75200 0.05400 0.44600 0.01100
H 	H 	0.77900 0.94900 0.70400 0.10400
H 	H 	0.01400 0.96100 0.70800 -0.12200
H 	H 	0.76500 0.86400 0.01600 0.08500
H 	H 	0.71400 0.41900 0.21800 -0.07800
H 	H 	0.98700 0.75000 0.46200 0.03800
H 	H 	0.80900 0.74000 0.25600 0.03500
H 	H 	0.27200 0.74400 0.66800 -0.04600
H 	H 	0.00300 0.72800 0.79400 0.04700
H 	H 	0.20900 0.93300 0.00400 -0.10800
H 	H 	0.69400 0.55400 0.44600 -0.03100
H 	H 	0.92500 0.44900 0.70400 0.03400
H 	H 	0.69400 0.46100 0.70800 0.03900
H 	H 	0.25100 0.36400 0.01600 0.02800
H 	H 	0.49600 0.08100 0.78200 -0.25900
H 	H 	0.52500 0.75000 0.53800 0.00600
H 	H 	0.55300 0.76000 0.74400 0.05700
H 	H 	0.60400 0.75600 0.33200 -0.03500
H 	H 	0.20900 0.77200 0.20600 -0.04100
H 	H 	0.20500 0.56700 0.99600 0.16100
H 	H 	0.24800 0.94600 0.55400 -0.07800
H 	H 	0.22100 0.05100 0.29600 -0.10200
H 	H 	0.98600 0.03900 0.29200 0.18500
H 	H 	0.23500 0.13600 0.98400 -0.08000
H 	H 	0.41900 0.75000 -0.00000 -0.05000
H 	H 	0.58100 0.25000 -0.00000 -0.06000
C 	C 	0.24526 0.49980 0.74992 0.11200
C 	C 	0.19538 0.31500 0.72396 -0.02700
C 	C 	0.08561 0.31460 0.61002 0.01200
C 	C 	0.76875 0.22950 0.26990 0.09300
C 	C 	0.80591 0.13160 0.08942 -0.26900
C 	C 	0.91710 0.24260 0.20120 0.11200
C 	C 	0.28112 0.47640 0.49424 0.09400
C 	C 	0.27678 0.52440 0.34496 -0.03500
C 	C 	0.15304 0.53310 0.34808 0.00600
C 	C 	0.68621 0.69080 0.99242 0.23600
C 	C 	0.49534 0.00020 0.25008 -0.22000
C 	C 	0.47142 0.18500 0.27604 -0.02000
C 	C 	0.47559 0.18540 0.38998 0.01400
C 	C 	0.49885 0.27050 0.73010 0.10500
C 	C 	0.71649 0.36840 0.91058 0.27700
C 	C 	0.71590 0.25740 0.79880 -0.14400
C 	C 	0.78688 0.02360 0.50576 -0.08300
C 	C 	0.93182 0.97560 0.65504 0.38800
C 	C 	0.80496 0.96690 0.65192 -0.14100
C 	C 	0.69379 0.80920 0.00758 -0.20000
C 	C 	0.75474 0.50020 0.25008 0.12000
C 	C 	0.80462 0.68500 0.27604 -0.01600
C 	C 	0.91439 0.68540 0.38998 0.03100
C 	C 	0.23125 0.77050 0.73010 0.10200
C 	C 	0.19409 0.86840 0.91058 0.25400
C 	C 	0.08290 0.75740 0.79880 -0.12100
C 	C 	0.71888 0.52360 0.50576 0.10700
C 	C 	0.72322 0.47560 0.65504 0.00300
C 	C 	0.84696 0.46690 0.65192 0.01700
C 	C 	0.31379 0.30920 0.00758 -0.23400
C 	C 	0.50466 0.99980 0.74992 0.43700
C 	C 	0.52858 0.81500 0.72396 -0.02300
C 	C 	0.52441 0.81460 0.61002 0.02800
C 	C 	0.50115 0.72950 0.26990 0.09000
C 	C 	0.28351 0.63160 0.08942 -0.26200
C 	C 	0.28410 0.74260 0.20120 0.12200
C 	C 	0.21312 0.97640 0.49424 0.28300
C 	C 	0.06818 0.02440 0.34496 -0.40900
C 	C 	0.19504 0.03310 0.34808 0.15700
C 	C 	0.30621 0.19080 0.99242 0.22700
C 	C 	0.50230 0.75000 -0.00000 -0.02700
C 	C 	0.49770 0.25000 -0.00000 -0.03700
N 	N 	0.11678 0.43220 0.62676 -0.38300
N 	N 	0.29927 0.43430 0.81354 -0.32400
N 	N 	0.89276 0.30660 0.31672 -0.34500
N 	N 	0.70965 0.12290 0.13230 -0.35500
N 	N 	0.15532 0.50290 0.44384 -0.37200
N 	N 	0.35790 0.48820 0.43820 -0.11900
N 	N 	0.56429 0.65280 0.98958 -0.30100
N 	N 	0.49002 0.06780 0.37324 -0.34100
N 	N 	0.48573 0.06570 0.18646 -0.34700
N 	N 	0.57604 0.19340 0.68328 -0.34500
N 	N 	0.57735 0.37710 0.86770 -0.36400
N 	N 	0.71148 0.99710 0.55616 -0.21400
N 	N 	0.91970 0.01180 0.56180 -0.21200
N 	N 	0.57471 0.84720 0.01042 -0.30300
N 	N 	0.88322 0.56780 0.37324 -0.35200
N 	N 	0.70073 0.56570 0.18646 -0.37000
N 	N 	0.10724 0.69340 0.68328 -0.34400
N 	N 	0.29035 0.87710 0.86770 -0.32800
N 	N 	0.84468 0.49710 0.55616 -0.33500
N 	N 	0.64210 0.51180 0.56180 -0.11700
N 	N 	0.43571 0.34720 0.01042 -0.33700
N 	N 	0.50998 0.93220 0.62676 -0.38900
N 	N 	0.51427 0.93430 0.81354 -0.34100
N 	N 	0.42396 0.80660 0.31672 -0.33700
N 	N 	0.42265 0.62290 0.13230 -0.32800
N 	N 	0.28852 0.00290 0.44384 -0.48700
N 	N 	0.08030 0.98820 0.43820 -0.02600
N 	N 	0.42529 0.15280 0.98958 -0.32400
