data_crystal

_cell_length_a 16.06300
_cell_length_b 16.48500
_cell_length_c 19.02500
_cell_angle_alpha 90.00000
_cell_angle_beta  90.00000
_cell_angle_gamma 90.00000

_symmetry_space_group_name_	'P 1'
_symmetry_space_group_name_H-M	'P 1'

loop_
_symmetry_equiv_pos_as_xyz
  x,y,z

loop_
_atom_site_label
_atom_site_type_symbol
_atom_site_fract_x
_atom_site_fract_y
_atom_site_fract_z
_atom_site_charge
In	In	0.54413 0.25746 0.01260 1.98200
In	In	0.27961 0.93052 0.81576 1.99100
In	In	0.95587 0.24254 0.01260 1.98100
In	In	0.22039 0.56948 0.81576 1.99200
In	In	0.45587 0.75746 0.48740 1.98300
In	In	0.72039 0.43052 0.68424 1.99200
In	In	0.04413 0.74254 0.48740 1.98100
In	In	0.77961 0.06948 0.68424 1.99100
In	In	0.45587 0.74254 0.98740 1.98100
In	In	0.72039 0.06948 0.18424 1.99000
In	In	0.04413 0.75746 0.98740 1.98000
In	In	0.77961 0.43052 0.18424 1.99100
In	In	0.54413 0.24254 0.51260 1.98200
In	In	0.27961 0.56948 0.31576 1.99100
In	In	0.95587 0.25746 0.51260 1.98100
In	In	0.22039 0.93052 0.31576 1.99100
H 	H 	0.20260 0.95610 0.06630 0.08000
H 	H 	0.28600 0.06730 0.10010 0.05800
H 	H 	0.39230 0.05470 0.91140 0.01200
H 	H 	0.02520 0.04380 0.69560 0.07300
H 	H 	0.97220 0.12500 0.78420 0.04000
H 	H 	0.16540 0.06820 0.90570 0.01000
H 	H 	0.42930 0.10180 0.60030 0.01800
H 	H 	0.56050 0.23400 0.78250 0.08900
H 	H 	0.46150 0.13580 0.80770 0.04600
H 	H 	0.29740 0.54390 0.06630 0.08600
H 	H 	0.21400 0.43270 0.10010 0.05500
H 	H 	0.10770 0.44530 0.91140 0.01700
H 	H 	0.47480 0.45620 0.69560 0.06500
H 	H 	0.52780 0.37500 0.78420 0.05100
H 	H 	0.33460 0.43180 0.90570 0.01000
H 	H 	0.07070 0.39820 0.60030 0.01700
H 	H 	0.93950 0.26600 0.78250 0.09100
H 	H 	0.03850 0.36420 0.80770 0.04400
H 	H 	0.79740 0.45610 0.43370 0.08700
H 	H 	0.71400 0.56730 0.39990 0.05400
H 	H 	0.60770 0.55470 0.58860 0.01600
H 	H 	0.97480 0.54380 0.80440 0.06800
H 	H 	0.02780 0.62500 0.71580 0.04500
H 	H 	0.83460 0.56820 0.59430 0.00900
H 	H 	0.57070 0.60180 0.89970 0.01800
H 	H 	0.43950 0.73400 0.71750 0.08900
H 	H 	0.53850 0.63580 0.69230 0.04600
H 	H 	0.70260 0.04390 0.43370 0.09100
H 	H 	0.78600 0.93270 0.39990 0.05000
H 	H 	0.89230 0.94530 0.58860 0.01400
H 	H 	0.52520 0.95620 0.80440 0.06300
H 	H 	0.47220 0.87500 0.71580 0.05100
H 	H 	0.66540 0.93180 0.59430 0.01100
H 	H 	0.92930 0.89820 0.89970 0.01400
H 	H 	0.06050 0.76600 0.71750 0.09500
H 	H 	0.96150 0.86420 0.69230 0.04000
H 	H 	0.79740 0.04390 0.93370 0.08000
H 	H 	0.71400 0.93270 0.89990 0.05800
H 	H 	0.60770 0.94530 0.08860 0.01200
H 	H 	0.97480 0.95620 0.30440 0.07300
H 	H 	0.02780 0.87500 0.21580 0.04000
H 	H 	0.83460 0.93180 0.09430 0.01000
H 	H 	0.57070 0.89820 0.39970 0.01800
H 	H 	0.43950 0.76600 0.21750 0.08900
H 	H 	0.53850 0.86420 0.19230 0.04600
H 	H 	0.70260 0.45610 0.93370 0.08600
H 	H 	0.78600 0.56730 0.89990 0.05500
H 	H 	0.89230 0.55470 0.08860 0.01700
H 	H 	0.52520 0.54380 0.30440 0.06500
H 	H 	0.47220 0.62500 0.21580 0.05100
H 	H 	0.66540 0.56820 0.09430 0.01000
H 	H 	0.92930 0.60180 0.39970 0.01700
H 	H 	0.06050 0.73400 0.21750 0.09100
H 	H 	0.96150 0.63580 0.19230 0.04400
H 	H 	0.20260 0.54390 0.56630 0.08700
H 	H 	0.28600 0.43270 0.60010 0.05400
H 	H 	0.39230 0.44530 0.41140 0.01600
H 	H 	0.02520 0.45620 0.19560 0.06800
H 	H 	0.97220 0.37500 0.28420 0.04500
H 	H 	0.16540 0.43180 0.40570 0.00900
H 	H 	0.42930 0.39820 0.10030 0.01800
H 	H 	0.56050 0.26600 0.28250 0.08900
H 	H 	0.46150 0.36420 0.30770 0.04600
H 	H 	0.29740 0.95610 0.56630 0.09100
H 	H 	0.21400 0.06730 0.60010 0.05000
H 	H 	0.10770 0.05470 0.41140 0.01400
H 	H 	0.47480 0.04380 0.19560 0.06300
H 	H 	0.52780 0.12500 0.28420 0.05100
H 	H 	0.33460 0.06820 0.40570 0.01100
H 	H 	0.07070 0.10180 0.10030 0.01400
H 	H 	0.93950 0.23400 0.28250 0.09500
H 	H 	0.03850 0.13580 0.30770 0.04000
C 	C 	0.19240 0.87800 0.94670 0.36600
C 	C 	0.24880 0.94660 0.97360 -0.06900
C 	C 	0.24150 0.97740 0.03510 -0.01800
C 	C 	0.29210 0.04380 0.05600 0.02600
C 	C 	0.34980 0.07230 0.00970 -0.12200
C 	C 	0.35320 0.03600 0.94360 0.09700
C 	C 	0.40750 0.14140 0.02880 0.38800
C 	C 	0.15230 0.93810 0.70230 0.30000
C 	C 	0.12200 0.00420 0.75360 -0.01100
C 	C 	0.05140 0.04730 0.73910 -0.06300
C 	C 	0.02090 0.09570 0.79150 0.03700
C 	C 	0.06160 0.10160 0.85510 -0.10200
C 	C 	0.13590 0.06140 0.86400 0.07400
C 	C 	0.02720 0.15130 0.91520 0.33500
C 	C 	0.37130 0.04430 0.72100 0.40600
C 	C 	0.43400 0.11040 0.70900 -0.12500
C 	C 	0.45390 0.13060 0.63680 0.08700
C 	C 	0.54530 0.22880 0.67610 -0.04300
C 	C 	0.53140 0.20830 0.74660 -0.05100
C 	C 	0.47340 0.14900 0.76120 0.04500
C 	C 	0.60270 0.29590 0.65510 0.39500
C 	C 	0.30760 0.62200 0.94670 0.36300
C 	C 	0.25120 0.55340 0.97360 -0.05400
C 	C 	0.25850 0.52260 0.03510 -0.03600
C 	C 	0.20790 0.45620 0.05600 0.03400
C 	C 	0.15020 0.42770 0.00970 -0.11400
C 	C 	0.14680 0.46400 0.94360 0.07800
C 	C 	0.09250 0.35860 0.02880 0.39200
C 	C 	0.34770 0.56190 0.70230 0.31100
C 	C 	0.37800 0.49580 0.75360 -0.02500
C 	C 	0.44860 0.45270 0.73910 -0.04700
C 	C 	0.47910 0.40430 0.79150 0.01500
C 	C 	0.43840 0.39840 0.85510 -0.09300
C 	C 	0.36410 0.43860 0.86400 0.06800
C 	C 	0.47280 0.34870 0.91520 0.32800
C 	C 	0.12870 0.45570 0.72100 0.40800
C 	C 	0.06600 0.38960 0.70900 -0.12900
C 	C 	0.04610 0.36940 0.63680 0.09200
C 	C 	0.95470 0.27120 0.67610 -0.04200
C 	C 	0.96860 0.29170 0.74660 -0.05700
C 	C 	0.02660 0.35100 0.76120 0.05200
C 	C 	0.89730 0.20410 0.65510 0.39400
C 	C 	0.80760 0.37800 0.55330 0.36200
C 	C 	0.75120 0.44660 0.52640 -0.05000
C 	C 	0.75850 0.47740 0.46490 -0.04200
C 	C 	0.70790 0.54380 0.44400 0.03800
C 	C 	0.65020 0.57230 0.49030 -0.11800
C 	C 	0.64680 0.53600 0.55640 0.08100
C 	C 	0.59250 0.64140 0.47120 0.39400
C 	C 	0.84770 0.43810 0.79770 0.31000
C 	C 	0.87800 0.50420 0.74640 -0.02200
C 	C 	0.94860 0.54730 0.76090 -0.05400
C 	C 	0.97910 0.59570 0.70850 0.02700
C 	C 	0.93840 0.60160 0.64490 -0.09900
C 	C 	0.86410 0.56140 0.63600 0.07100
C 	C 	0.97280 0.65130 0.58480 0.33400
C 	C 	0.62870 0.54430 0.77900 0.40700
C 	C 	0.56600 0.61040 0.79100 -0.12600
C 	C 	0.54610 0.63060 0.86320 0.08700
C 	C 	0.45470 0.72880 0.82390 -0.04400
C 	C 	0.46860 0.70830 0.75340 -0.05100
C 	C 	0.52660 0.64900 0.73880 0.04600
C 	C 	0.39730 0.79590 0.84490 0.39500
C 	C 	0.69240 0.12200 0.55330 0.36000
C 	C 	0.74880 0.05340 0.52640 -0.04500
C 	C 	0.74150 0.02260 0.46490 -0.05700
C 	C 	0.79210 0.95620 0.44400 0.05200
C 	C 	0.84980 0.92770 0.49030 -0.12400
C 	C 	0.85320 0.96400 0.55640 0.08900
C 	C 	0.90750 0.85860 0.47120 0.39700
C 	C 	0.65230 0.06190 0.79770 0.31300
C 	C 	0.62200 0.99580 0.74640 -0.02800
C 	C 	0.55140 0.95270 0.76090 -0.04600
C 	C 	0.52090 0.90430 0.70850 0.01400
C 	C 	0.56160 0.89840 0.64490 -0.09300
C 	C 	0.63590 0.93860 0.63600 0.06700
C 	C 	0.52720 0.84870 0.58480 0.32800
C 	C 	0.87130 0.95570 0.77900 0.41100
C 	C 	0.93400 0.88960 0.79100 -0.13600
C 	C 	0.95390 0.86940 0.86320 0.10000
C 	C 	0.04530 0.77120 0.82390 -0.03800
C 	C 	0.03140 0.79170 0.75340 -0.07100
C 	C 	0.97340 0.85100 0.73880 0.06600
C 	C 	0.10270 0.70410 0.84490 0.39200
C 	C 	0.80760 0.12200 0.05330 0.36600
C 	C 	0.75120 0.05340 0.02640 -0.06900
C 	C 	0.75850 0.02260 0.96490 -0.01800
C 	C 	0.70790 0.95620 0.94400 0.02600
C 	C 	0.65020 0.92770 0.99030 -0.12200
C 	C 	0.64680 0.96400 0.05640 0.09700
C 	C 	0.59250 0.85860 0.97120 0.38800
C 	C 	0.84770 0.06190 0.29770 0.30000
C 	C 	0.87800 0.99580 0.24640 -0.01100
C 	C 	0.94860 0.95270 0.26090 -0.06300
C 	C 	0.97910 0.90430 0.20850 0.03700
C 	C 	0.93840 0.89840 0.14490 -0.10200
C 	C 	0.86410 0.93860 0.13600 0.07400
C 	C 	0.97280 0.84870 0.08480 0.33500
C 	C 	0.62870 0.95570 0.27900 0.40600
C 	C 	0.56600 0.88960 0.29100 -0.12500
C 	C 	0.54610 0.86940 0.36320 0.08700
C 	C 	0.45470 0.77120 0.32390 -0.04300
C 	C 	0.46860 0.79170 0.25340 -0.05100
C 	C 	0.52660 0.85100 0.23880 0.04500
C 	C 	0.39730 0.70410 0.34490 0.39500
C 	C 	0.69240 0.37800 0.05330 0.36300
C 	C 	0.74880 0.44660 0.02640 -0.05400
C 	C 	0.74150 0.47740 0.96490 -0.03600
C 	C 	0.79210 0.54380 0.94400 0.03400
C 	C 	0.84980 0.57230 0.99030 -0.11400
C 	C 	0.85320 0.53600 0.05640 0.07800
C 	C 	0.90750 0.64140 0.97120 0.39200
C 	C 	0.65230 0.43810 0.29770 0.31100
C 	C 	0.62200 0.50420 0.24640 -0.02500
C 	C 	0.55140 0.54730 0.26090 -0.04700
C 	C 	0.52090 0.59570 0.20850 0.01500
C 	C 	0.56160 0.60160 0.14490 -0.09300
C 	C 	0.63590 0.56140 0.13600 0.06800
C 	C 	0.52720 0.65130 0.08480 0.32800
C 	C 	0.87130 0.54430 0.27900 0.40800
C 	C 	0.93400 0.61040 0.29100 -0.12900
C 	C 	0.95390 0.63060 0.36320 0.09200
C 	C 	0.04530 0.72880 0.32390 -0.04200
C 	C 	0.03140 0.70830 0.25340 -0.05700
C 	C 	0.97340 0.64900 0.23880 0.05200
C 	C 	0.10270 0.79590 0.34490 0.39400
C 	C 	0.19240 0.62200 0.44670 0.36200
C 	C 	0.24880 0.55340 0.47360 -0.05000
C 	C 	0.24150 0.52260 0.53510 -0.04200
C 	C 	0.29210 0.45620 0.55600 0.03800
C 	C 	0.34980 0.42770 0.50970 -0.11800
C 	C 	0.35320 0.46400 0.44360 0.08100
C 	C 	0.40750 0.35860 0.52880 0.39400
C 	C 	0.15230 0.56190 0.20230 0.31000
C 	C 	0.12200 0.49580 0.25360 -0.02200
C 	C 	0.05140 0.45270 0.23910 -0.05400
C 	C 	0.02090 0.40430 0.29150 0.02700
C 	C 	0.06160 0.39840 0.35510 -0.09900
C 	C 	0.13590 0.43860 0.36400 0.07100
C 	C 	0.02720 0.34870 0.41520 0.33400
C 	C 	0.37130 0.45570 0.22100 0.40700
C 	C 	0.43400 0.38960 0.20900 -0.12600
C 	C 	0.45390 0.36940 0.13680 0.08700
C 	C 	0.54530 0.27120 0.17610 -0.04400
C 	C 	0.53140 0.29170 0.24660 -0.05100
C 	C 	0.47340 0.35100 0.26120 0.04600
C 	C 	0.60270 0.20410 0.15510 0.39500
C 	C 	0.30760 0.87800 0.44670 0.36000
C 	C 	0.25120 0.94660 0.47360 -0.04500
C 	C 	0.25850 0.97740 0.53510 -0.05700
C 	C 	0.20790 0.04380 0.55600 0.05200
C 	C 	0.15020 0.07230 0.50970 -0.12400
C 	C 	0.14680 0.03600 0.44360 0.08900
C 	C 	0.09250 0.14140 0.52880 0.39700
C 	C 	0.34770 0.93810 0.20230 0.31300
C 	C 	0.37800 0.00420 0.25360 -0.02800
C 	C 	0.44860 0.04730 0.23910 -0.04600
C 	C 	0.47910 0.09570 0.29150 0.01400
C 	C 	0.43840 0.10160 0.35510 -0.09300
C 	C 	0.36410 0.06140 0.36400 0.06700
C 	C 	0.47280 0.15130 0.41520 0.32800
C 	C 	0.12870 0.04430 0.22100 0.41100
C 	C 	0.06600 0.11040 0.20900 -0.13600
C 	C 	0.04610 0.13060 0.13680 0.10000
C 	C 	0.95470 0.22880 0.17610 -0.03800
C 	C 	0.96860 0.20830 0.24660 -0.07100
C 	C 	0.02660 0.14900 0.26120 0.06600
C 	C 	0.89730 0.29590 0.15510 0.39200
N 	N 	0.30250 0.97540 0.92430 -0.28400
N 	N 	0.16740 0.01180 0.81310 -0.27600
N 	N 	0.50710 0.19010 0.62250 -0.24400
N 	N 	0.19750 0.52460 0.92430 -0.27800
N 	N 	0.33260 0.48820 0.81310 -0.27500
N 	N 	0.99290 0.30990 0.62250 -0.24700
N 	N 	0.69750 0.47540 0.57570 -0.27900
N 	N 	0.83260 0.51180 0.68690 -0.27600
N 	N 	0.49290 0.69010 0.87750 -0.24400
N 	N 	0.80250 0.02460 0.57570 -0.28400
N 	N 	0.66740 0.98820 0.68690 -0.27500
N 	N 	0.00710 0.80990 0.87750 -0.25200
N 	N 	0.69750 0.02460 0.07570 -0.28400
N 	N 	0.83260 0.98820 0.18690 -0.27600
N 	N 	0.49290 0.80990 0.37750 -0.24400
N 	N 	0.80250 0.47540 0.07570 -0.27800
N 	N 	0.66740 0.51180 0.18690 -0.27500
N 	N 	0.00710 0.69010 0.37750 -0.24700
N 	N 	0.30250 0.52460 0.42430 -0.27900
N 	N 	0.16740 0.48820 0.31310 -0.27600
N 	N 	0.50710 0.30990 0.12250 -0.24400
N 	N 	0.19750 0.97540 0.42430 -0.28400
N 	N 	0.33260 0.01180 0.31310 -0.27500
N 	N 	0.99290 0.19010 0.12250 -0.25200
O 	O 	0.20000 0.85450 0.88340 -0.51800
O 	O 	0.14350 0.84850 0.99030 -0.52700
O 	O 	0.39420 0.18090 0.08090 -0.33900
O 	O 	0.46530 0.15810 0.98670 -0.53000
O 	O 	0.21150 0.89320 0.72550 -0.48000
O 	O 	0.11410 0.92900 0.64760 -0.25600
O 	O 	0.97100 0.20330 0.89910 -0.45600
O 	O 	0.05200 0.14530 0.97600 -0.44700
O 	O 	0.36620 0.02060 0.78510 -0.54600
O 	O 	0.33220 0.01520 0.67520 -0.34300
O 	O 	0.63980 0.33200 0.70470 -0.52600
O 	O 	0.60710 0.31600 0.59310 -0.57700
O 	O 	0.30000 0.64550 0.88340 -0.51500
O 	O 	0.35650 0.65150 0.99030 -0.52300
O 	O 	0.10580 0.31910 0.08090 -0.33800
O 	O 	0.03470 0.34190 0.98670 -0.53300
O 	O 	0.28850 0.60680 0.72550 -0.48000
O 	O 	0.38590 0.57100 0.64760 -0.25400
O 	O 	0.52900 0.29670 0.89910 -0.45300
O 	O 	0.44800 0.35470 0.97600 -0.44800
O 	O 	0.13380 0.47940 0.78510 -0.54900
O 	O 	0.16780 0.48480 0.67520 -0.34600
O 	O 	0.86020 0.16800 0.70470 -0.52700
O 	O 	0.89290 0.18400 0.59310 -0.57800
O 	O 	0.80000 0.35450 0.61660 -0.51500
O 	O 	0.85650 0.34850 0.50970 -0.52200
O 	O 	0.60580 0.68090 0.41910 -0.34000
O 	O 	0.53470 0.65810 0.51330 -0.53600
O 	O 	0.78850 0.39320 0.77450 -0.47900
O 	O 	0.88590 0.42900 0.85240 -0.25300
O 	O 	0.02900 0.70330 0.60090 -0.45800
O 	O 	0.94800 0.64530 0.52400 -0.45000
O 	O 	0.63380 0.52060 0.71490 -0.54900
O 	O 	0.66780 0.51520 0.82480 -0.34600
O 	O 	0.36020 0.83200 0.79530 -0.52800
O 	O 	0.39290 0.81600 0.90690 -0.57800
O 	O 	0.70000 0.14550 0.61660 -0.51400
O 	O 	0.64350 0.15150 0.50970 -0.52100
O 	O 	0.89420 0.81910 0.41910 -0.33900
O 	O 	0.96530 0.84190 0.51330 -0.53400
O 	O 	0.71150 0.10680 0.77450 -0.48000
O 	O 	0.61410 0.07100 0.85240 -0.25300
O 	O 	0.47100 0.79670 0.60090 -0.45400
O 	O 	0.55200 0.85470 0.52400 -0.44900
O 	O 	0.86620 0.97940 0.71490 -0.54900
O 	O 	0.83220 0.98480 0.82480 -0.34700
O 	O 	0.13980 0.66800 0.79530 -0.52600
O 	O 	0.10710 0.68400 0.90690 -0.57700
O 	O 	0.80000 0.14550 0.11660 -0.51800
O 	O 	0.85650 0.15150 0.00970 -0.52700
O 	O 	0.60580 0.81910 0.91910 -0.33900
O 	O 	0.53470 0.84190 0.01330 -0.53000
O 	O 	0.78850 0.10680 0.27450 -0.48000
O 	O 	0.88590 0.07100 0.35240 -0.25600
O 	O 	0.02900 0.79670 0.10090 -0.45600
O 	O 	0.94800 0.85470 0.02400 -0.44700
O 	O 	0.63380 0.97940 0.21490 -0.54600
O 	O 	0.66780 0.98480 0.32480 -0.34300
O 	O 	0.36020 0.66800 0.29530 -0.52600
O 	O 	0.39290 0.68400 0.40690 -0.57700
O 	O 	0.70000 0.35450 0.11660 -0.51500
O 	O 	0.64350 0.34850 0.00970 -0.52300
O 	O 	0.89420 0.68090 0.91910 -0.33800
O 	O 	0.96530 0.65810 0.01330 -0.53300
O 	O 	0.71150 0.39320 0.27450 -0.48000
O 	O 	0.61410 0.42900 0.35240 -0.25400
O 	O 	0.47100 0.70330 0.10090 -0.45300
O 	O 	0.55200 0.64530 0.02400 -0.44800
O 	O 	0.86620 0.52060 0.21490 -0.54900
O 	O 	0.83220 0.51520 0.32480 -0.34600
O 	O 	0.13980 0.83200 0.29530 -0.52700
O 	O 	0.10710 0.81600 0.40690 -0.57800
O 	O 	0.20000 0.64550 0.38340 -0.51500
O 	O 	0.14350 0.65150 0.49030 -0.52200
O 	O 	0.39420 0.31910 0.58090 -0.34000
O 	O 	0.46530 0.34190 0.48670 -0.53600
O 	O 	0.21150 0.60680 0.22550 -0.47900
O 	O 	0.11410 0.57100 0.14760 -0.25300
O 	O 	0.97100 0.29670 0.39910 -0.45800
O 	O 	0.05200 0.35470 0.47600 -0.45000
O 	O 	0.36620 0.47940 0.28510 -0.54900
O 	O 	0.33220 0.48480 0.17520 -0.34600
O 	O 	0.63980 0.16800 0.20470 -0.52800
O 	O 	0.60710 0.18400 0.09310 -0.57800
O 	O 	0.30000 0.85450 0.38340 -0.51400
O 	O 	0.35650 0.84850 0.49030 -0.52100
O 	O 	0.10580 0.18090 0.58090 -0.33900
O 	O 	0.03470 0.15810 0.48670 -0.53400
O 	O 	0.28850 0.89320 0.22550 -0.48000
O 	O 	0.38590 0.92900 0.14760 -0.25300
O 	O 	0.52900 0.20330 0.39910 -0.45400
O 	O 	0.44800 0.14530 0.47600 -0.44900
O 	O 	0.13380 0.02060 0.28510 -0.54900
O 	O 	0.16780 0.01520 0.17520 -0.34700
O 	O 	0.86020 0.33200 0.20470 -0.52600
O 	O 	0.89290 0.31600 0.09310 -0.57700
