data_crystal

_cell_length_a 7.22000
_cell_length_b 10.46300
_cell_length_c 11.19000
_cell_angle_alpha 90.00000
_cell_angle_beta  90.00000
_cell_angle_gamma 90.00000

_symmetry_space_group_name_	'P 1'
_symmetry_space_group_name_H-M	'P 1'

loop_
_symmetry_equiv_pos_as_xyz
  x,y,z

loop_
_atom_site_label
_atom_site_type_symbol
_atom_site_fract_x
_atom_site_fract_y
_atom_site_fract_z
_atom_site_charge
Zn	Zn	0.37210 0.67880 0.20920 1.20100
Zn	Zn	0.87210 0.32120 0.29080 1.20100
Zn	Zn	0.12790 0.17880 0.79080 1.20100
Zn	Zn	0.62790 0.82120 0.70920 1.20000
H 	H 	0.40100 0.46000 0.47600 0.05800
H 	H 	0.12900 0.50300 0.57400 0.02300
H 	H 	0.24800 0.62900 0.59900 0.02700
H 	H 	0.95000 0.63200 0.42700 0.09500
H 	H 	0.12000 0.75700 0.45600 0.06500
H 	H 	0.54900 0.63200 0.37900 0.13000
H 	H 	0.39800 0.70900 0.42600 0.12200
H 	H 	0.90100 0.54000 0.02400 0.05700
H 	H 	0.62900 0.49700 0.92600 0.02300
H 	H 	0.74800 0.37100 0.90100 0.02800
H 	H 	0.45000 0.36800 0.07300 0.09600
H 	H 	0.62000 0.24300 0.04400 0.06500
H 	H 	0.04900 0.36800 0.12100 0.13500
H 	H 	0.89800 0.29100 0.07400 0.12300
H 	H 	0.09900 0.96000 0.52400 0.05600
H 	H 	0.37100 0.00300 0.42600 0.02400
H 	H 	0.25200 0.12900 0.40100 0.02900
H 	H 	0.55000 0.13200 0.57300 0.09500
H 	H 	0.38000 0.25700 0.54400 0.06500
H 	H 	0.95100 0.13200 0.62100 0.12900
H 	H 	0.10200 0.20900 0.57400 0.12300
H 	H 	0.59900 0.04000 0.97600 0.05600
H 	H 	0.87100 0.99700 0.07400 0.02400
H 	H 	0.75200 0.87100 0.09900 0.02900
H 	H 	0.05000 0.86800 0.92700 0.09100
H 	H 	0.88000 0.74300 0.95600 0.06400
H 	H 	0.45100 0.86800 0.87900 0.13000
H 	H 	0.60200 0.79100 0.92600 0.12200
C 	C 	0.21020 0.46970 0.33990 0.34900
C 	C 	0.31860 0.53770 0.43950 -0.11000
C 	C 	0.18720 0.58430 0.53590 -0.00600
C 	C 	0.03610 0.67250 0.49040 -0.22000
C 	C 	0.91210 0.72480 0.58900 0.33300
C 	C 	0.71020 0.53030 0.16010 0.34800
C 	C 	0.81860 0.46230 0.06050 -0.10900
C 	C 	0.68720 0.41570 0.96410 -0.00800
C 	C 	0.53610 0.32750 0.00960 -0.21900
C 	C 	0.41210 0.27520 0.91100 0.33200
C 	C 	0.28980 0.96970 0.66010 0.34400
C 	C 	0.18140 0.03770 0.56050 -0.10500
C 	C 	0.31280 0.08430 0.46410 -0.00800
C 	C 	0.46390 0.17250 0.50960 -0.22000
C 	C 	0.58790 0.22480 0.41100 0.33300
C 	C 	0.78980 0.03030 0.83990 0.34500
C 	C 	0.68140 0.96230 0.93950 -0.10500
C 	C 	0.81280 0.91570 0.03590 -0.01400
C 	C 	0.96390 0.82750 0.99040 -0.21200
C 	C 	0.08790 0.77520 0.08900 0.33200
N 	N 	0.43260 0.64190 0.38980 -0.36700
N 	N 	0.93260 0.35810 0.11020 -0.37100
N 	N 	0.06740 0.14190 0.61020 -0.36600
N 	N 	0.56740 0.85810 0.88980 -0.36800
O 	O 	0.22640 0.50650 0.23460 -0.44600
O 	O 	0.10710 0.37880 0.37460 -0.45400
O 	O 	0.76580 0.78470 0.55420 -0.43600
O 	O 	0.94460 0.70860 0.69720 -0.36200
O 	O 	0.72640 0.49350 0.26540 -0.44700
O 	O 	0.60710 0.62120 0.12540 -0.45600
O 	O 	0.26580 0.21530 0.94580 -0.43700
O 	O 	0.44460 0.29140 0.80280 -0.36200
O 	O 	0.27360 0.00650 0.76540 -0.44500
O 	O 	0.39290 0.87880 0.62540 -0.45500
O 	O 	0.73420 0.28470 0.44580 -0.43600
O 	O 	0.55540 0.20860 0.30280 -0.36200
O 	O 	0.77360 0.99350 0.73460 -0.44500
O 	O 	0.89290 0.12120 0.87460 -0.45500
O 	O 	0.23420 0.71530 0.05420 -0.43500
O 	O 	0.05540 0.79140 0.19720 -0.36200
