data_crystal

_cell_length_a 7.17700
_cell_length_b 10.39600
_cell_length_c 11.12100
_cell_angle_alpha 90.00000
_cell_angle_beta  90.00000
_cell_angle_gamma 90.00000

_symmetry_space_group_name_	'P 1'
_symmetry_space_group_name_H-M	'P 1'

loop_
_symmetry_equiv_pos_as_xyz
  x,y,z

loop_
_atom_site_label
_atom_site_type_symbol
_atom_site_fract_x
_atom_site_fract_y
_atom_site_fract_z
_atom_site_charge
Zn	Zn	0.37744 0.07091 0.04091 1.20200
Zn	Zn	0.12256 0.92909 0.54091 1.20200
Zn	Zn	0.62256 0.57091 0.45909 1.20200
Zn	Zn	0.87744 0.42909 0.95909 1.19900
H 	H 	0.78790 0.12360 0.81940 0.13400
H 	H 	0.65190 0.00320 0.80200 0.12600
H 	H 	0.62030 0.24030 0.67430 0.00000
H 	H 	0.48770 0.11920 0.65130 0.00300
H 	H 	0.34160 0.27710 0.77230 0.07800
H 	H 	0.31300 0.04100 0.81600 0.12400
H 	H 	0.19900 0.12900 0.86600 0.13500
H 	H 	0.71210 0.87640 0.31940 0.14000
H 	H 	0.84810 0.99680 0.30200 0.13100
H 	H 	0.87970 0.75970 0.17430 -0.00400
H 	H 	0.01230 0.88080 0.15130 -0.00900
H 	H 	0.15840 0.72290 0.27230 0.08100
H 	H 	0.18700 0.95900 0.31600 0.12000
H 	H 	0.30100 0.87100 0.36600 0.13200
H 	H 	0.21210 0.62360 0.68060 0.13800
H 	H 	0.34810 0.50320 0.69800 0.12700
H 	H 	0.37970 0.74030 0.82570 -0.00100
H 	H 	0.51230 0.61920 0.84870 0.00000
H 	H 	0.65840 0.77710 0.72770 0.07800
H 	H 	0.68700 0.54100 0.68400 0.12000
H 	H 	0.80100 0.62900 0.63400 0.13100
H 	H 	0.28790 0.37640 0.18060 0.13700
H 	H 	0.15190 0.49680 0.19800 0.12700
H 	H 	0.12030 0.25970 0.32570 0.00100
H 	H 	0.98770 0.38080 0.34870 -0.00000
H 	H 	0.84160 0.22290 0.22770 0.07700
H 	H 	0.81300 0.45900 0.18400 0.12200
H 	H 	0.69900 0.37100 0.13400 0.13300
C 	C 	0.83780 0.02460 0.66171 0.37700
C 	C 	0.71120 0.07650 0.75991 -0.35100
C 	C 	0.56060 0.16520 0.71338 0.07500
C 	C 	0.53650 0.28260 0.90942 0.36700
C 	C 	0.42800 0.21340 0.81014 -0.16100
C 	C 	0.66220 0.97540 0.16171 0.38400
C 	C 	0.78880 0.92350 0.25991 -0.36300
C 	C 	0.93940 0.83480 0.21338 0.09800
C 	C 	0.96350 0.71740 0.40942 0.37400
C 	C 	0.07200 0.78660 0.31014 -0.17400
C 	C 	0.16220 0.52460 0.83829 0.38000
C 	C 	0.28880 0.57650 0.74009 -0.35400
C 	C 	0.43940 0.66520 0.78662 0.07800
C 	C 	0.46350 0.78260 0.59058 0.37000
C 	C 	0.57200 0.71340 0.68986 -0.16300
C 	C 	0.33780 0.47540 0.33829 0.38000
C 	C 	0.21120 0.42350 0.24009 -0.35400
C 	C 	0.06060 0.33480 0.28662 0.07800
C 	C 	0.03650 0.21740 0.09058 0.36200
C 	C 	0.92800 0.28660 0.18986 -0.16000
N 	N 	0.31440 0.10852 0.86095 -0.36300
N 	N 	0.18560 0.89148 0.36095 -0.36000
N 	N 	0.68560 0.60852 0.63905 -0.36100
N 	N 	0.81440 0.39148 0.13905 -0.36200
O 	O 	0.98390 0.96448 0.69676 -0.45500
O 	O 	0.80240 0.03898 0.55321 -0.37800
O 	O 	0.52040 0.24491 0.01569 -0.45300
O 	O 	0.64000 0.37300 0.87486 -0.46400
O 	O 	0.51610 0.03552 0.19676 -0.45500
O 	O 	0.69760 0.96102 0.05321 -0.37500
O 	O 	0.97960 0.75509 0.51569 -0.45700
O 	O 	0.86000 0.62700 0.37486 -0.46400
O 	O 	0.01610 0.46448 0.80324 -0.45100
O 	O 	0.19760 0.53898 0.94679 -0.37600
O 	O 	0.47960 0.74491 0.48431 -0.45500
O 	O 	0.36000 0.87300 0.62514 -0.46300
O 	O 	0.48390 0.53552 0.30324 -0.45400
O 	O 	0.30240 0.46102 0.44679 -0.37700
O 	O 	0.02040 0.25509 0.98431 -0.44600
O 	O 	0.14000 0.12700 0.12514 -0.46000
