data_crystal

_cell_length_a 6.93500
_cell_length_b 15.29650
_cell_length_c 15.29650
_cell_angle_alpha 117.75800
_cell_angle_beta  98.69210
_cell_angle_gamma 98.69210

_symmetry_space_group_name_	'P 1'
_symmetry_space_group_name_H-M	'P 1'

loop_
_symmetry_equiv_pos_as_xyz
  x,y,z

loop_
_atom_site_label
_atom_site_type_symbol
_atom_site_fract_x
_atom_site_fract_y
_atom_site_fract_z
_atom_site_charge
Zn	Zn	0.88652 0.67327 0.40196 1.22500
Zn	Zn	0.21325 0.72869 0.32673 1.22500
Zn	Zn	0.48456 0.59804 0.27131 1.22500
Zn	Zn	0.11348 0.32673 0.59804 1.22500
Zn	Zn	0.78675 0.27131 0.67327 1.22500
Zn	Zn	0.51544 0.40196 0.72869 1.22500
H 	H 	0.35553 0.97668 0.52745 0.06000
H 	H 	0.37885 0.55077 0.02332 0.06100
H 	H 	0.82808 0.47255 0.44923 0.06100
H 	H 	0.64447 0.02332 0.47255 0.06000
H 	H 	0.62115 0.44923 0.97668 0.06100
H 	H 	0.17192 0.52745 0.55077 0.06100
C 	C 	0.64630 0.82753 0.39246 0.34200
C 	C 	0.81877 0.56493 0.17247 0.34200
C 	C 	0.25384 0.60754 0.43507 0.34200
C 	C 	0.35370 0.17247 0.60754 0.34200
C 	C 	0.18123 0.43507 0.82753 0.34200
C 	C 	0.74616 0.39246 0.56493 0.34200
C 	C 	0.82999 0.91371 0.44875 -0.15100
C 	C 	0.91628 0.53504 0.08629 -0.15000
C 	C 	0.38124 0.55125 0.46496 -0.15100
C 	C 	0.17001 0.08629 0.55125 -0.15100
C 	C 	0.08372 0.46496 0.91371 -0.15000
C 	C 	0.61876 0.44875 0.53504 -0.15100
C 	C 	0.03256 0.89820 0.46418 0.17900
C 	C 	0.13436 0.56598 0.10180 0.17800
C 	C 	0.56838 0.53582 0.43402 0.17800
C 	C 	0.96744 0.10180 0.53582 0.17900
C 	C 	0.86564 0.43402 0.89820 0.17800
C 	C 	0.43162 0.46418 0.56598 0.17800
C 	C 	0.19812 0.98611 0.51499 -0.06600
C 	C 	0.21201 0.52888 0.01389 -0.06700
C 	C 	0.68313 0.48501 0.47112 -0.06600
C 	C 	0.80188 0.01389 0.48501 -0.06600
C 	C 	0.78799 0.47112 0.98611 -0.06700
C 	C 	0.31687 0.51499 0.52888 -0.06600
O 	O 	0.67019 0.73281 0.35890 -0.59900
O 	O 	0.93738 0.62609 0.26719 -0.59900
O 	O 	0.31129 0.64110 0.37391 -0.59900
O 	O 	0.32981 0.26719 0.64110 -0.59900
O 	O 	0.06262 0.37391 0.73281 -0.59900
O 	O 	0.68871 0.35890 0.62609 -0.59900
O 	O 	0.46217 0.84189 0.37522 -0.44300
O 	O 	0.62028 0.53333 0.15811 -0.44300
O 	O 	0.08695 0.62478 0.46667 -0.44300
O 	O 	0.53783 0.15811 0.62478 -0.44300
O 	O 	0.37972 0.46667 0.84189 -0.44300
O 	O 	0.91305 0.37522 0.53333 -0.44300
O 	O 	0.07123 0.80301 0.43217 -0.54700
O 	O 	0.26822 0.62916 0.19699 -0.54700
O 	O 	0.63906 0.56783 0.37084 -0.54700
O 	O 	0.92877 0.19699 0.56783 -0.54700
O 	O 	0.73178 0.37084 0.80301 -0.54700
O 	O 	0.36094 0.43217 0.62916 -0.54700
